$DATA1 SOURCE='HSPICE' VERSION='K-2015.06-3 linux64' PARAM_COUNT=2
.TITLE 'inverter'
 index            wp               tphl             tplh            
                  tpd              temper           alter#          
 6                 5.026e-07        1.208e-11        1.208e-11      
                  -3.220e-18         25.0000        1               
