$DATA1 SOURCE='HSPICE' VERSION='K-2015.06-3 linux64' PARAM_COUNT=2
.TITLE 'inverter'
 index            wp               tphl             tplh            
                  tpd              temper           alter#          
 2                 4.747e-07        1.227e-11        1.274e-11      
                   4.686e-13         25.0000        1               
