$DATA1 SOURCE='HSPICE' VERSION='K-2015.06-3 linux64' PARAM_COUNT=2
.TITLE 'inverter'
 index            wp               vm               temper          
                  alter#          
 20                4.004e-07          failed          25.0000       
                  1               
