****** HSPICE -- K-2015.06-3 linux64 (Aug  5 2015) ******                      
 ******  
 inverter

 ****** operating point information tnom=  25.000 temp=  25.000 ******
 ****** operating point status is voltage   simulation time is     0.     
    node    =voltage      node    =voltage      node    =voltage

 +0:out1    =   1.0500  0:vdd     =   1.0500  0:vi      =   0.     
 +0:vo      = 113.2820n


 maximum nodal capacitance=   1.913E-13         on node     0:vo              

    nodal  capacitance table 

    node    =    cap      node    =    cap      node    =    cap

 +0:out1    =  22.1403f 0:vdd     =  22.4783f 0:vi      =   2.7379f
 +0:vo      = 191.3286f

 
 ******
 inverter

 ****** transient analysis tnom=  25.000 temp=  25.000 ******
 tphh= 220.2253p  targ=  12.0002u   trig=  12.0000u
 tpll= 218.6226p  targ=  17.0002u   trig=  17.0000u
 tp= 219.4240p

          ***** job concluded