$DATA1 SOURCE='HSPICE' VERSION='K-2015.06-3 linux64' PARAM_COUNT=2
.TITLE 'inverter'
 index            wp               tphl             tplh            
                  tpd              tp               temper          
                  alter#          
 1                 4.004e-07        2.153e-10        1.953e-10      
                   2.000e-11        2.053e-10         25.0000       
                  1               
