$DATA1 SOURCE='HSPICE' VERSION='K-2015.06-3 linux64' PARAM_COUNT=2
.TITLE 'inverter'
 index            wp               tphl             tplh            
                  tpd              tp               temper          
                  alter#          
 1                 4.004e-07        6.891e-10        5.613e-10      
                   1.278e-10        6.252e-10         25.0000       
                  1               
