****** HSPICE -- K-2015.06-3 linux64 (Aug  5 2015) ******                      
 ******  
 inverter

 ****** operating point information tnom=  25.000 temp=  25.000 ******
 ****** operating point status is voltage   simulation time is     0.     
    node    =voltage      node    =voltage      node    =voltage

 +0:out1    =   1.0500  0:out2    =  57.4177n 0:out3    =   1.0500 
 +0:vdd     =   1.0500  0:vi      =   0.      0:vo      = 185.6666n


 maximum nodal capacitance=   2.207E-13         on node     0:vo              

    nodal  capacitance table 

    node    =    cap      node    =    cap      node    =    cap

 +0:out1    =   9.2369f 0:out2    =  27.5449f 0:out3    =  74.3749f
 +0:vdd     =  87.1305f 0:vi      =   2.7379f 0:vo      = 220.7265f

 
 ******
 inverter

 ****** transient analysis tnom=  25.000 temp=  25.000 ******
 tphh= 212.0083p  targ=  12.0002u   trig=  12.0000u
 tpll= 210.6097p  targ=  17.0002u   trig=  17.0000u
 tp= 211.3090p

          ***** job concluded