$DATA1 SOURCE='HSPICE' VERSION='K-2015.06-3 linux64' PARAM_COUNT=0
.TITLE 'inverter'
 tphl             tplh             tpd              tp              
 temper           alter#          
  1.353e-11        1.202e-11        1.512e-12        1.277e-11      
   25.0000        1               
