****** HSPICE -- K-2015.06-3 linux64 (Aug  5 2015) ******                      
 ******  
 inverter

 ****** operating point information tnom=  25.000 temp=  25.000 ******
 ****** operating point status is voltage   simulation time is     0.     
    node    =voltage      node    =voltage      node    =voltage

 +0:out1    =   1.0500  0:out2    =  72.4823n 0:vdd     =   1.0500 
 +0:vi      =   0.      0:vo      =   1.0500 


 maximum nodal capacitance=   1.935E-13         on node     0:vo              

    nodal  capacitance table 

    node    =    cap      node    =    cap      node    =    cap

 +0:out1    =  12.2149f 0:out2    =  29.9604f 0:vdd     =  34.2688f
 +0:vi      =   2.7379f 0:vo      = 193.5208f

 
 ******
 inverter

 ****** transient analysis tnom=  25.000 temp=  25.000 ******
 tphl= 215.2876p  targ=  12.0002u   trig=  12.0000u
 tplh= 195.2878p  targ=  17.0002u   trig=  17.0000u
 tp= 205.2877p

          ***** job concluded