 ****** HSPICE -- K-2015.06-3 linux64 (Aug  5 2015) ******                      
  Copyright (c) 1986 - 2024 by Synopsys, Inc. All Rights Reserved.              
  This software and the associated documentation are proprietary
  to Synopsys, Inc. This software may only be used in accordance
  with the terms and conditions of a written license agreement with
  Synopsys, Inc. All other use, reproduction, or distribution of
  this software is strictly prohibited.
  Input File: lab04.sp                                                          
  Command line options: /usr/cots/synopsys/HSPICE-K-2015.06-3/hspice/linux64/hspice -i lab04.sp -o lab04.lis
 lic:  
 lic: FLEXlm: v11.2.1 
 lic: USER:   mbass01              HOSTNAME: vm-hw09 
 lic: HOSTID: 005056000009         PID:      829978 
 lic: Using FLEXlm license file: 
 lic: 27000@vm-license1 
 lic: Checkout 1 hspice 
 lic: License/Maintenance for hspice will expire on 15-sep-2026/2024.09 
 lic: 1(in_use)/50(total) FLOATING license(s) on SERVER 27000@vm-license1 
 lic:   
 Init: read install configuration file: /usr/cots/synopsys/HSPICE-K-2015.06-3/hspice/meta.cfg
 **error** (lab04.sp:176)syntax error at or before ".measure" "tran" "tphh_4" "trig" "v" "(" "vi" ")" "val" "=" "'vdd*0.5'" "rise" "=" "2" "targ" "v" "(" "out4" ")" "val" "=" "'vdd*0.5'" "rise" "=" "2" 

Syntax reference: 
Syntax
.MEASURE [DC|AC|TRAN] result TRIG ... TARG ...
+ [[GOAL=val]|GOALMAX|GOALMIN] [MINVAL=val] [WEIGHT=val]



               ***** job aborted
 lic: Release hspice token(s) 
 lic: total license checkout elapse time:        0.01(s)
