$DATA1 SOURCE='HSPICE' VERSION='K-2015.06-3 linux64' PARAM_COUNT=2
.TITLE 'inverter'
 index            wp               tphl             tplh            
                  tp               temper           alter#          
 2                 4.384e-07        1.189e-11        1.302e-11      
                   1.246e-11         25.0000        1               
