$DATA1 SOURCE='HSPICE' VERSION='K-2015.06-3 linux64' PARAM_COUNT=2
.TITLE 'inverter'
 index            wp               tphl             tplh            
                  tp               temper           alter#          
 1                 4.004e-07        5.000e-06       -5.000e-06      
                   2.113e-10         25.0000        1               
