$DATA1 SOURCE='HSPICE' VERSION='K-2015.06-3 linux64' PARAM_COUNT=2
.TITLE 'inverter'
 index            wp               tphl             tplh            
                  tpd              temper           alter#          
 1                 4.004e-07        3.384e-10        2.910e-10      
                   4.743e-11         25.0000        1               
