$DATA1 SOURCE='HSPICE' VERSION='K-2015.06-3 linux64' PARAM_COUNT=2
.TITLE 'inverter'
 index            wp               tphl             tplh            
                  tpd              temper           alter#          
 1                 1.000e-06        2.052e-10        1.963e-10      
                   8.891e-12         25.0000        1               
