$DATA1 SOURCE='HSPICE' VERSION='K-2015.06-3 linux64' PARAM_COUNT=2
.TITLE 'inverter'
 index            wp               tphh             tpll            
                  tpd              temper           alter#          
 1                 4.004e-07        2.120e-10        2.106e-10      
                   1.399e-12         25.0000        1               
