 ****** HSPICE -- K-2015.06-3 linux64 (Aug  5 2015) ******                      
  Copyright (c) 1986 - 2024 by Synopsys, Inc. All Rights Reserved.              
  This software and the associated documentation are proprietary
  to Synopsys, Inc. This software may only be used in accordance
  with the terms and conditions of a written license agreement with
  Synopsys, Inc. All other use, reproduction, or distribution of
  this software is strictly prohibited.
  Input File: lab2.sp                                                           
  Command line options: /usr/cots/synopsys/HSPICE-K-2015.06-3/hspice/linux64/hspice -i lab2.sp -o lab2.lis
 lic:  
 lic: FLEXlm: v11.2.1 
 lic: USER:   mbass01              HOSTNAME: vm-hw04 
 lic: HOSTID: 005056000004         PID:      3913448 
 lic: Using FLEXlm license file: 
 lic: 27000@vm-license1 
 lic: Checkout 1 hspice 
 lic: License/Maintenance for hspice will expire on 15-sep-2026/2024.09 
 lic: 1(in_use)/50(total) FLOATING license(s) on SERVER 27000@vm-license1 
 lic:   
 Init: read install configuration file: /usr/cots/synopsys/HSPICE-K-2015.06-3/hspice/meta.cfg
1****** HSPICE -- K-2015.06-3 linux64 (Aug  5 2015) ******                      
 ******  
 lab2 nmos

 ****** mos   model parameters tnom=  25.000 temp=  25.000 ******
 Model file: lab2.sp
 Model line:           22
 Model Name: n105  
 BSIM4 Model (Level 54)
    MOBMOD = 0
    BINUNIT = 1
    PARAMCHK = 1
    CAPMOD = 2
    DIOMOD = 1
    RDSMOD = 0
    TRNQSMOD = 0
    ACNQSMOD = 0
    RBODYMOD = 0
    RGATEMOD = 0
    PERMOD = 1
    GEOMOD = 0
    RGEOMOD = 0
    FNOIMOD = 1
    TNOIMOD = 0
    IGCMOD = 0
    IGBMOD = 0
    STIMOD = 1
    VBFWDMOD = 0
    VERSION =   4.66 
    TOXREF =  3e-09 
    TOXE =  3e-09 
    TOXP =  3e-09 
    TOXM =  3e-09 
    DTOX =      0 
    EPSROX =    3.9 
    CDSC = 0.00024 
    CDSCB =      0 
    CDSCD =      0 
    CIT =      0 
    NFACTOR =      1 
    XJ = 1.5e-07 
    VSAT =  8e+04 
    A0 =      1 
    AGS =      0 
    A1 =      0 
    A2 =      1 
    AT = 3.3e+04 
    KETA = -0.047 
    NSUB =  6e+16 
    NDEP = 1.7e+17 
    NSD =  1e+20 
    NGATE =      0 
    GAMMA1 =      0 
    GAMMA2 =      0 
    VBX =      0 
    VBM =     -3 
    XT = 1.55e-07 
    K1 =      0 
    KT1 =  -0.11 
    KT1L =      0 
    KT2 =  0.022 
    K2 =      0 
    K3 =     80 
    K3B =      0 
    LPE0 = 1.74e-07 
    LPEB =      0 
    DVTP0 =      0 
    DVTP1 =      0 
    W0 = 2.5e-06 
    DVT0 =    2.2 
    DVT1 =   0.53 
    DVT2 = -0.032 
    DVT0W =      0 
    DVT1W = 5.3e+06 
    DVT2W = -0.032 
    DROUT =   0.56 
    DSUB =   0.56 
    VTH0 =    0.7 
    EU =   1.67 
    UA =  1e-09 
    UA1 =  1e-09 
    UB =  1e-19 
    UB1 = -1e-18 
    UC = -4.65e-11 
    UC1 = -5.6e-11 
    U0 =  0.067 
    UTE =   -1.5 
    VOFF =  -0.08 
    VOFFL =      0 
    MINV =      0 
    FPROUT =      0 
    PDITS =      0 
    PDITSD =      0 
    PDITSL =      0 
    DELTA =   0.01 
    RDSW =    200 
    RDSWMIN =      0 
    RDWMIN =      0 
    RSWMIN =      0 
    RDW =    100 
    RSW =    100 
    PRWG =      1 
    PRWB =      0 
    PRT =      0 
    ETA0 =   0.08 
    ETAB =  -0.07 
    PCLM =    1.3 
    PDIBLC1 =   0.39 
    PDIBLC2 = 0.0086 
    PDIBLCB =      0 
    PSCBE1 = 4.24e+08 
    PSCBE2 =  1e-05 
    PVAG =      0 
    WR =      1 
    DWG =      0 
    DWB =      0 
    XW =      0 
    XWREF =      0 
    XL =      0 
    XLREF =      0 
    B0 =      0 
    B1 =      0 
    ALPHA0 =      0 
    ALPHA1 =      0 
    AGIDL =      0 
    BGIDL = 2.3e+09 
    CGIDL =    0.5 
    PHIN =      0 
    EGIDL =    0.8 
    AIGC = 0.0136 
    BIGC = 0.00171 
    CIGC =  0.075 
    AIGSD = 0.0136 
    BIGSD = 0.00171 
    CIGSD =  0.075 
    AIGBACC = 0.0136 
    BIGBACC = 0.00171 
    CIGBACC =  0.075 
    AIGBINV = 0.0111 
    BIGBINV = 0.000949 
    CIGBINV =  0.006 
    NIGC =      1 
    NIGBINV =      3 
    NIGBACC =      1 
    NTOX =      1 
    EIGBINV =    1.1 
    PIGCD =      1 
    POXEDGE =      1 
    XRCRG1 =     12 
    TNOIA =    1.5 
    TNOIB =    3.5 
    NTNOI =      1 
    XRCRG2 =      1 
    BETA0 =      0 
    IJTHDFWD =    0.1 
    IJTHSFWD =    0.1 
    IJTHDREV =    0.1 
    IJTHSREV =    0.1 
    XJBVD =      1 
    XJBVS =      1 
    BVD =     10 
    BVS =     10 
    VFB =     -1 
    GBMIN =  1e-12 
    RBDB =     50 
    RBPB =     50 
    RBSB =     50 
    RBPS =     50 
    RBPD =     50 
    CGSL =      0 
    CGDL =      0 
    CKAPPAS =    0.6 
    CKAPPAD =    0.6 
    CF = 1.077e-10 
    CLC =  1e-07 
    CLE =    0.6 
    DWC =      0 
    DLC =      0 
    DLCIG =      0 
    DWJ =      0 
    VFBCV =     -1 
    ACDE =      1 
    MOIN =     15 
    NOFF =      1 
    VOFFCV =      0 
    DMCG =      0 
    DMCI =      0 
    DMDG =      0 
    DMCGT =      0 
    XGW =      0 
    XGL =      0 
    RSHG =    0.1 
    NGCON =      1 
    TCJ =      0 
    TPB =      0 
    TCJSW =      0 
    TPBSW =      0 
    TCJSWG =      0 
    TPBSWG =      0 
    SK0 =      0 
    SK1 =      0 
    SK2 =      0 
    SL =  2e-06 
    SW =  2e-06 
    K =      0 
    TNOM =  298.1 
    CGSO =      0 
    CGDO =      0 
    CGBO =      0 
    XPART =      0 
    RSH =      0 
    JSS = 0.0001 
    JSWS =      0 
    JSWGS =      0 
    PBS =      1 
    MJS =    0.5 
    PBSWS =      1 
    MJSWS =   0.33 
    CJS = 0.0005 
    CJSWS =  5e-10 
    NJS =      1 
    PBSWGS =      1 
    MJSWGS =   0.33 
    CJSWGS =  5e-10 
    XTIS =      3 
    JSD = 0.0001 
    JSWD =      0 
    JSWGD =      0 
    PBD =      1 
    MJD =    0.5 
    PBSWD =      1 
    MJSWD =   0.33 
    CJD = 0.0005 
    CJSWD =  5e-10 
    NJD =      1 
    PBSWGD =      1 
    MJSWGD =   0.33 
    CJSWGD =  5e-10 
    XTID =      3 
    LMLT =      1 
    WMLT =      1 
    LINT =      0 
    LL =      0 
    LLC =      0 
    LLN =      1 
    LW =      0 
    LWC =      0 
    LWN =      1 
    LWL =      0 
    LWLC =      0 
    LMIN =      0 
    LMAX =      1 
    WINT =      0 
    WL =      0 
    WLC =      0 
    WLN =      1 
    WW =      0 
    WWC =      0 
    WWN =      1 
    WWL =      0 
    WWLC =      0 
    WMIN =      0 
    WMAX =      1 
    NOIA = 6.25e+41 
    NOIB = 3.125e+26 
    NOIC = 8.75e+09 
    EM = 4.1e+07 
    EF =      1 
    AF =      1 
    KF =      0 
    TRS =      0 
    TRD =      0 
    TEMPMOD  =      0 
    LAMBDA   =      0 
    VTL      =  2e+05 m/s
    LC       =  5e-09 
    XN       =      3 
    LLAMBDA  =      0 
    LVTL     =      0 
    LXN      =      0 
    WLAMBDA  =      0 
    WVTL     =      0 
    WXN      =      0 
    PLAMBDA  =      0 
    PVTL     =      0 
    PXN      =      0 
    RNOIA    =  0.577 
    RNOIB    = 0.5164 
    SAREF(SA0) =  1e-06 m
    SBREF(SB0) =  1e-06 m
    WLOD     =      0 m
    KU0      =      0 1/m
    KVSAT    =      0 
    KVTH0    =      0 m
    TKU0     =      0 
    LLODKU0  =      0 
    WLODKU0  =      0 
    LLODVTH  =      0 
    WLODVTH  =      0 
    LKU0     =      0 
    WKU0     =      0 
    PKU0     =      0 
    LKVTH0   =      0 
    WKVTH0   =      0 
    PKVTH0   =      0 
    STK2     =      0 
    LODK2    =      1 
    STETA0   =      0 
    LODETA0  =      1 
    LXRCRG1  =      0 
    WXRCRG1  =      0 
    PXRCRG1  =      0 
    LXRCRG2  =      0 
    WXRCRG2  =      0 
    PXRCRG2  =      0 
     *** UCB's BSIM4.4.0 new diode model is activated. ***
    *** UCB's Diode Model Parameters ***
    JTSS         =      0 
    JTSSWS       =      0 
    JTSSWGS      =      0 
    JTSD         =      0 
    JTSSWD       =      0 
    JTSSWGD      =      0 
    NJTS         =     20 
    NJTSSW       =     20 
    NJTSSWG      =     20 
    XTSS         =   0.02 
    XTSSWS       =   0.02 
    XTSSWGS      =   0.02 
    XTSD         =   0.02 
    XTSSWD       =   0.02 
    XTSSWGD      =   0.02 
    TNJTS        =      0 
    TNJTSSW      =      0 
    TNJTSSWG     =      0 
    VFBSDOFF     =      0 
    LVFBSDOFF    =      0 
    WVFBSDOFF    =      0 
    PVFBSDOFF    =      0 
    LINTNOI      =      0 
    VTSS         =     10 
    VTSD         =     10 
    VTSSWS       =     10 
    VTSSWD       =     10 
    VTSSWGS      =     10 
    VTSSWGD      =     10 
    TTDIOMOD     =      1 
     *** UCB's BSIM4.5.0 new model is activated. ***
    UD         =      0 
    UD1        =      0 
    UP         =      0 
    LP         =  1e-08 
    TVOFF      =      0 
    TVFBSDOFF  =      0 
    RBPS0      =     50 
    RBPSL      =      0 
    RBPSW      =      0 
    RBPSNF     =      0 
    RBPD0      =     50 
    RBPDL      =      0 
    RBPDW      =      0 
    RBPDNF     =      0 
    RBPBX0     =    100 
    RBPBXL     =      0 
    RBPBXW     =      0 
    RBPBXNF    =      0 
    RBPBY0     =    100 
    RBPBYL     =      0 
    RBPBYW     =      0 
    RBPBYNF    =      0 
    RBSBX0     =    100 
    RBSBY0     =    100 
    RBDBX0     =    100 
    RBDBY0     =    100 
    RBSDBXL    =      0 
    RBSDBXW    =      0 
    RBSDBXNF   =      0 
    RBSDBYL    =      0 
    RBSDBYW    =      0 
    RBSDBYNF   =      0 
    LUD        =      0 
    LUD1       =      0 
    LUP        =      0 
    LLP        =      0 
    LTVOFF     =      0 
    LTVFBSDOFF =      0 
    WUD        =      0 
    WUD1       =      0 
    WUP        =      0 
    WLP        =      0 
    WTVOFF     =      0 
    WTVFBSDOFF =      0 
    PUD        =      0 
    PUD1       =      0 
    PUP        =      0 
    PLP        =      0 
    PTVOFF     =      0 
    PTVFBSDOFF =      0 
    WEB        =      0 
    WEC        =      0 
    KVTH0WE    =      0 
    K2WE       =      0 
    KU0WE      =      0 
    SCREF      =  1e-06 
    WPEMOD     =      0 
    LKVTH0WE   =      0 
    LK2WE      =      0 
    LKU0WE     =      0 
    WKVTH0WE   =      0 
    WK2WE      =      0 
    WKU0WE     =      0 
    PKVTH0WE   =      0 
    PK2WE      =      0 
    PKU0WE     =      0 
     *** UCB's BSIM4.6.0 new model is activated. ***
    AGISL     =      0 
    BGISL     = 2.3e+09 
    CGISL     =    0.5 
    EGISL     =    0.8 
    AIGS      = 0.0136 
    BIGS      = 0.00171 
    CIGS      =  0.075 
    AIGD      = 0.0136 
    BIGD      = 0.00171 
    CIGD      =  0.075 
    NJTSD     =     20 
    NJTSSWD   =     20 
    NJTSSWGD  =     20 
    TNJTSD    =      0 
    TNJTSSWD  =      0 
    TNJTSSWGD =      0 
    DLCIGD    =      0 
    LAGISL    =      0 
    LBGISL    =      0 
    LCGISL    =      0 
    LEGISL    =      0 
    LAIGS     =      0 
    LBIGS     =      0 
    LCIGS     =      0 
    LAIGD     =      0 
    LBIGD     =      0 
    LCIGD     =      0 
    WAGISL    =      0 
    WBGISL    =      0 
    WCGISL    =      0 
    WEGISL    =      0 
    WAIGS     =      0 
    WBIGS     =      0 
    WCIGS     =      0 
    WAIGD     =      0 
    WBIGD     =      0 
    WCIGD     =      0 
    PAGISL    =      0 
    PBGISL    =      0 
    PCGISL    =      0 
    PEGISL    =      0 
    PAIGS     =      0 
    PBIGS     =      0 
    PCIGS     =      0 
    PAIGD     =      0 
    PBIGD     =      0 
    PCIGD     =      0 
     *** UCB's BSIM4.6.1 new model is activated. ***
    CVCHARGEMOD     = 0
    MTRLMOD     = 0
    EOT     = 1.5e-09 
    VDDEOT     =    1.5 
    ADOS     =      1 
    BDOS     =      1 
    PHIG     =   4.05 
    EPSRGATE     =   11.7 
    EASUB     =   4.05 
    EPSRSUB     =   11.7 
    NI0SUB     = 1.45e+10 
    BG0SUB     =   1.16 
    TBGASUB     = 0.000702 
    TBGBSUB     =   1108 
    MINVCV     =      0 
    VOFFCV1     =      0 
    LMINVCV     =      0 
    WMINVCV     =      0 
    PMINVCV     =      0 
    TEMPEOT     =  300.1 
    LEFFEOT     =      1 
    WEFFEOT     =     10 
    UCS         =   1.67 
    UCSTE       = -0.004775 
    LUCS        =      0 
    LUCSTE      =      0 
    WUCS        =      0 
    WUCSTE      =      0 
    PUCS        =      0 
    PUCSTE      =      0 
    JTWEFF      =      0 
     *** UCB's BSIM4.6.6 new model is activated. ***
    GIDLMOD     = 0
    DVTP2       =      0 
    DVTP3       =      0 
    DVTP4       =      0 
    DVTP5       =      0 
    TNFACTOR    =      0 
    TETA0       =      0 
    TVOFFCV     =      0 
    FGIDL       =      0 
    KGIDL       =      0 
    RGIDL       =      1 
    FGISL       =      0 
    KGISL       =      0 
    RGISL       =      1 
    TNOIC       =      0 
    RNOIC       =  0.395 
    LDVTP2      =      0 
    LDVTP3      =      0 
    LDVTP4      =      0 
    LDVTP5      =      0 
    LTNFACTOR   =      0 
    LTETA0      =      0 
    LTVOFFCV    =      0 
    LFGIDL      =      0 
    LKGIDL      =      0 
    LRGIDL      =      0 
    LFGISL      =      0 
    LKGISL      =      0 
    LRGISL      =      0 
    WDVTP2      =      0 
    WDVTP3      =      0 
    WDVTP4      =      0 
    WDVTP5      =      0 
    WTNFACTOR   =      0 
    WTETA0      =      0 
    WTVOFFCV    =      0 
    WFGIDL      =      0 
    WKGIDL      =      0 
    WRGIDL      =      0 
    WFGISL      =      0 
    WKGISL      =      0 
    WRGISL      =      0 
    PDVTP2      =      0 
    PDVTP3      =      0 
    PDVTP4      =      0 
    PDVTP5      =      0 
    PTNFACTOR   =      0 
    PTETA0      =      0 
    PTVOFFCV    =      0 
    PFGIDL      =      0 
    PKGIDL      =      0 
    PRGIDL      =      0 
    PFGISL      =      0 
    PKGISL      =      0 
    PRGISL      =      0 
  
      
 *****************************************************************
 ******  option summary
 ******
 runlvl  = 3         bypass  = 2         
 ******
 lab2 nmos

 ****** dc transfer curves tnom=  25.000 temp=  25.000 ******
 x

 volt         current   
             m1         
    0.         24.7634p 
   10.00000m   34.6306p 
   20.00000m   48.6003p 
   30.00000m   68.3760p 
   40.00000m   96.3671p 
   50.00000m  135.9803p 
   60.00000m  192.0306p 
   70.00000m  271.3209p 
   80.00000m  383.4572p 
   90.00000m  541.9963p 
  100.00000m  766.0560p 
  110.00000m    1.0826n 
  120.00000m    1.5295n 
  130.00000m    2.1600n 
  140.00000m    3.0491n 
  150.00000m    4.3016n 
  160.00000m    6.0642n 
  170.00000m    8.5416n 
  180.00000m   12.0185n 
  190.00000m   16.8898n 
  200.00000m   23.7008n 
  210.00000m   33.2013n 
  220.00000m   46.4157n 
  230.00000m   64.7353n 
  240.00000m   90.0345n 
  250.00000m  124.8155n 
  260.00000m  172.3824n 
  270.00000m  237.0435n 
  280.00000m  324.3325n 
  290.00000m  441.2346n 
  300.00000m  596.3889n 
  310.00000m  800.2280n 
  320.00000m    1.0650u 
  330.00000m    1.4047u 
  340.00000m    1.8344u 
  350.00000m    2.3702u 
  360.00000m    3.0279u 
  370.00000m    3.8221u 
  380.00000m    4.7650u 
  390.00000m    5.8658u 
  400.00000m    7.1294u 
  410.00000m    8.5562u 
  420.00000m   10.1424u 
  430.00000m   11.8798u 
  440.00000m   13.7571u 
  450.00000m   15.7603u 
  460.00000m   17.8740u 
  470.00000m   20.0824u 
  480.00000m   22.3695u 
  490.00000m   24.7207u 
  500.00000m   27.1222u 
  510.00000m   29.5621u 
  520.00000m   32.0302u 
  530.00000m   34.5178u 
  540.00000m   37.0179u 
  550.00000m   39.5250u 
  560.00000m   42.0349u 
  570.00000m   44.5443u 
  580.00000m   47.0511u 
  590.00000m   49.5536u 
  600.00000m   52.0510u 
  610.00000m   54.5427u 
  620.00000m   57.0286u 
  630.00000m   59.5089u 
  640.00000m   61.9838u 
  650.00000m   64.4537u 
  660.00000m   66.9191u 
  670.00000m   69.3805u 
  680.00000m   71.8385u 
  690.00000m   74.2936u 
  700.00000m   76.7463u 
  710.00000m   79.1971u 
  720.00000m   81.6464u 
  730.00000m   84.0947u 
  740.00000m   86.5424u 
  750.00000m   88.9897u 
  760.00000m   91.4370u 
  770.00000m   93.8845u 
  780.00000m   96.3326u 
  790.00000m   98.7814u 
  800.00000m  101.2310u 
  810.00000m  103.6817u 
  820.00000m  106.1335u 
  830.00000m  108.5866u 
  840.00000m  111.0411u 
  850.00000m  113.4970u 
  860.00000m  115.9544u 
  870.00000m  118.4133u 
  880.00000m  120.8739u 
  890.00000m  123.3360u 
  900.00000m  125.7998u 
  910.00000m  128.2652u 
  920.00000m  130.7322u 
  930.00000m  133.2009u 
  940.00000m  135.6712u 
  950.00000m  138.1431u 
  960.00000m  140.6167u 
  970.00000m  143.0918u 
  980.00000m  145.5684u 
  990.00000m  148.0466u 
    1.00000   150.5264u 
    1.01000   153.0076u 
    1.02000   155.4903u 
    1.03000   157.9744u 
    1.04000   160.4599u 
    1.05000   162.9468u 
y

          ***** job concluded
1****** HSPICE -- K-2015.06-3 linux64 (Aug  5 2015) ******                      
 ******  
 lab2 nmos

 ****** job statistics summary tnom=  25.000 temp=  25.000 ******
  
  
 ******  Machine Information  ******
 CPU:
 model name	: Intel(R) Xeon(R) Silver 4214Y CPU @ 2.20GHz
 cpu MHz	: 2194.844
  
 OS:
 Linux version 4.18.0-553.16.1.el8_10.x86_64 (mockbuild@x86-64-01.build.eng.rdu2.redhat.com) (gcc version 8.5.0 20210514 (Red Hat 8.5.0-22) (GCC)) #1 SMP Thu Aug 1 04:16:12 EDT 2024


  ******  HSPICE Threads Information  ******

  Command Line Threads Count :     1
  Available CPU Count        :     6
  Actual Threads Count       :     1


  ******  Circuit Statistics  ******
  # nodes       =       4 # elements   =       4
  # resistors   =       0 # capacitors =       0 # inductors   =       0
  # mutual_inds =       0 # vccs       =       0 # vcvs        =       0
  # cccs        =       0 # ccvs       =       0 # volt_srcs   =       3
  # curr_srcs   =       0 # diodes     =       0 # bjts        =       0
  # jfets       =       0 # mosfets    =       1 # U elements  =       0
  # T elements  =       0 # W elements =       0 # B elements  =       0
  # S elements  =       0 # P elements =       0 # va device   =       0
  # vector_srcs =       0 # N elements =       0


  ******  Runtime Statistics (seconds)  ******

  analysis           time    # points   tot. iter  conv.iter
  op point           0.00           1           0
  dc sweep           0.00         106         213
  readin             1.10
  errchk             0.01
  setup              0.00
  output             0.00


           peak memory used        275.39 megabytes
           total cpu time            1.11 seconds
           total elapsed time        0.64 seconds
           job started at     16:27:13 11/11/2024
           job ended   at     16:27:14 11/11/2024


 lic: Release hspice token(s) 
 lic: total license checkout elapse time:        0.01(s)
