 ****** HSPICE -- K-2015.06-3 linux64 (Aug  5 2015) ******                      
  Copyright (c) 1986 - 2024 by Synopsys, Inc. All Rights Reserved.              
  This software and the associated documentation are proprietary
  to Synopsys, Inc. This software may only be used in accordance
  with the terms and conditions of a written license agreement with
  Synopsys, Inc. All other use, reproduction, or distribution of
  this software is strictly prohibited.
  Input File: lab2.sp                                                           
  Command line options: /usr/cots/synopsys/HSPICE-K-2015.06-3/hspice/linux64/hspice -i lab2.sp -o lab2.lis
 lic:  
 lic: FLEXlm: v11.2.1 
 lic: USER:   mbass01              HOSTNAME: vm-hw04 
 lic: HOSTID: 005056000004         PID:      3902580 
 lic: Using FLEXlm license file: 
 lic: 27000@vm-license1 
 lic: Checkout 1 hspice 
 lic: License/Maintenance for hspice will expire on 15-sep-2026/2024.09 
 lic: 1(in_use)/50(total) FLOATING license(s) on SERVER 27000@vm-license1 
 lic:   
 Init: read install configuration file: /usr/cots/synopsys/HSPICE-K-2015.06-3/hspice/meta.cfg
1****** HSPICE -- K-2015.06-3 linux64 (Aug  5 2015) ******                      
 ******  
 lab2 nmos

 ****** mos   model parameters tnom=  25.000 temp=  25.000 ******
 Model file: lab2.sp
 Model line:           22
 Model Name: n105  
 BSIM4 Model (Level 54)
    MOBMOD = 0
    BINUNIT = 1
    PARAMCHK = 1
    CAPMOD = 2
    DIOMOD = 1
    RDSMOD = 0
    TRNQSMOD = 0
    ACNQSMOD = 0
    RBODYMOD = 0
    RGATEMOD = 0
    PERMOD = 1
    GEOMOD = 0
    RGEOMOD = 0
    FNOIMOD = 1
    TNOIMOD = 0
    IGCMOD = 0
    IGBMOD = 0
    STIMOD = 1
    VBFWDMOD = 0
    VERSION =   4.66 
    TOXREF =  3e-09 
    TOXE =  3e-09 
    TOXP =  3e-09 
    TOXM =  3e-09 
    DTOX =      0 
    EPSROX =    3.9 
    CDSC = 0.00024 
    CDSCB =      0 
    CDSCD =      0 
    CIT =      0 
    NFACTOR =      1 
    XJ = 1.5e-07 
    VSAT =  8e+04 
    A0 =      1 
    AGS =      0 
    A1 =      0 
    A2 =      1 
    AT = 3.3e+04 
    KETA = -0.047 
    NSUB =  6e+16 
    NDEP = 1.7e+17 
    NSD =  1e+20 
    NGATE =      0 
    GAMMA1 =      0 
    GAMMA2 =      0 
    VBX =      0 
    VBM =     -3 
    XT = 1.55e-07 
    K1 =      0 
    KT1 =  -0.11 
    KT1L =      0 
    KT2 =  0.022 
    K2 =      0 
    K3 =     80 
    K3B =      0 
    LPE0 = 1.74e-07 
    LPEB =      0 
    DVTP0 =      0 
    DVTP1 =      0 
    W0 = 2.5e-06 
    DVT0 =    2.2 
    DVT1 =   0.53 
    DVT2 = -0.032 
    DVT0W =      0 
    DVT1W = 5.3e+06 
    DVT2W = -0.032 
    DROUT =   0.56 
    DSUB =   0.56 
    VTH0 =    0.7 
    EU =   1.67 
    UA =  1e-09 
    UA1 =  1e-09 
    UB =  1e-19 
    UB1 = -1e-18 
    UC = -4.65e-11 
    UC1 = -5.6e-11 
    U0 =  0.067 
    UTE =   -1.5 
    VOFF =  -0.08 
    VOFFL =      0 
    MINV =      0 
    FPROUT =      0 
    PDITS =      0 
    PDITSD =      0 
    PDITSL =      0 
    DELTA =   0.01 
    RDSW =    200 
    RDSWMIN =      0 
    RDWMIN =      0 
    RSWMIN =      0 
    RDW =    100 
    RSW =    100 
    PRWG =      1 
    PRWB =      0 
    PRT =      0 
    ETA0 =   0.08 
    ETAB =  -0.07 
    PCLM =    1.3 
    PDIBLC1 =   0.39 
    PDIBLC2 = 0.0086 
    PDIBLCB =      0 
    PSCBE1 = 4.24e+08 
    PSCBE2 =  1e-05 
    PVAG =      0 
    WR =      1 
    DWG =      0 
    DWB =      0 
    XW =      0 
    XWREF =      0 
    XL =      0 
    XLREF =      0 
    B0 =      0 
    B1 =      0 
    ALPHA0 =      0 
    ALPHA1 =      0 
    AGIDL =      0 
    BGIDL = 2.3e+09 
    CGIDL =    0.5 
    PHIN =      0 
    EGIDL =    0.8 
    AIGC = 0.0136 
    BIGC = 0.00171 
    CIGC =  0.075 
    AIGSD = 0.0136 
    BIGSD = 0.00171 
    CIGSD =  0.075 
    AIGBACC = 0.0136 
    BIGBACC = 0.00171 
    CIGBACC =  0.075 
    AIGBINV = 0.0111 
    BIGBINV = 0.000949 
    CIGBINV =  0.006 
    NIGC =      1 
    NIGBINV =      3 
    NIGBACC =      1 
    NTOX =      1 
    EIGBINV =    1.1 
    PIGCD =      1 
    POXEDGE =      1 
    XRCRG1 =     12 
    TNOIA =    1.5 
    TNOIB =    3.5 
    NTNOI =      1 
    XRCRG2 =      1 
    BETA0 =      0 
    IJTHDFWD =    0.1 
    IJTHSFWD =    0.1 
    IJTHDREV =    0.1 
    IJTHSREV =    0.1 
    XJBVD =      1 
    XJBVS =      1 
    BVD =     10 
    BVS =     10 
    VFB =     -1 
    GBMIN =  1e-12 
    RBDB =     50 
    RBPB =     50 
    RBSB =     50 
    RBPS =     50 
    RBPD =     50 
    CGSL =      0 
    CGDL =      0 
    CKAPPAS =    0.6 
    CKAPPAD =    0.6 
    CF = 1.077e-10 
    CLC =  1e-07 
    CLE =    0.6 
    DWC =      0 
    DLC =      0 
    DLCIG =      0 
    DWJ =      0 
    VFBCV =     -1 
    ACDE =      1 
    MOIN =     15 
    NOFF =      1 
    VOFFCV =      0 
    DMCG =      0 
    DMCI =      0 
    DMDG =      0 
    DMCGT =      0 
    XGW =      0 
    XGL =      0 
    RSHG =    0.1 
    NGCON =      1 
    TCJ =      0 
    TPB =      0 
    TCJSW =      0 
    TPBSW =      0 
    TCJSWG =      0 
    TPBSWG =      0 
    SK0 =      0 
    SK1 =      0 
    SK2 =      0 
    SL =  2e-06 
    SW =  2e-06 
    K =      0 
    TNOM =  298.1 
    CGSO =      0 
    CGDO =      0 
    CGBO =      0 
    XPART =      0 
    RSH =      0 
    JSS = 0.0001 
    JSWS =      0 
    JSWGS =      0 
    PBS =      1 
    MJS =    0.5 
    PBSWS =      1 
    MJSWS =   0.33 
    CJS = 0.0005 
    CJSWS =  5e-10 
    NJS =      1 
    PBSWGS =      1 
    MJSWGS =   0.33 
    CJSWGS =  5e-10 
    XTIS =      3 
    JSD = 0.0001 
    JSWD =      0 
    JSWGD =      0 
    PBD =      1 
    MJD =    0.5 
    PBSWD =      1 
    MJSWD =   0.33 
    CJD = 0.0005 
    CJSWD =  5e-10 
    NJD =      1 
    PBSWGD =      1 
    MJSWGD =   0.33 
    CJSWGD =  5e-10 
    XTID =      3 
    LMLT =      1 
    WMLT =      1 
    LINT =      0 
    LL =      0 
    LLC =      0 
    LLN =      1 
    LW =      0 
    LWC =      0 
    LWN =      1 
    LWL =      0 
    LWLC =      0 
    LMIN =      0 
    LMAX =      1 
    WINT =      0 
    WL =      0 
    WLC =      0 
    WLN =      1 
    WW =      0 
    WWC =      0 
    WWN =      1 
    WWL =      0 
    WWLC =      0 
    WMIN =      0 
    WMAX =      1 
    NOIA = 6.25e+41 
    NOIB = 3.125e+26 
    NOIC = 8.75e+09 
    EM = 4.1e+07 
    EF =      1 
    AF =      1 
    KF =      0 
    TRS =      0 
    TRD =      0 
    TEMPMOD  =      0 
    LAMBDA   =      0 
    VTL      =  2e+05 m/s
    LC       =  5e-09 
    XN       =      3 
    LLAMBDA  =      0 
    LVTL     =      0 
    LXN      =      0 
    WLAMBDA  =      0 
    WVTL     =      0 
    WXN      =      0 
    PLAMBDA  =      0 
    PVTL     =      0 
    PXN      =      0 
    RNOIA    =  0.577 
    RNOIB    = 0.5164 
    SAREF(SA0) =  1e-06 m
    SBREF(SB0) =  1e-06 m
    WLOD     =      0 m
    KU0      =      0 1/m
    KVSAT    =      0 
    KVTH0    =      0 m
    TKU0     =      0 
    LLODKU0  =      0 
    WLODKU0  =      0 
    LLODVTH  =      0 
    WLODVTH  =      0 
    LKU0     =      0 
    WKU0     =      0 
    PKU0     =      0 
    LKVTH0   =      0 
    WKVTH0   =      0 
    PKVTH0   =      0 
    STK2     =      0 
    LODK2    =      1 
    STETA0   =      0 
    LODETA0  =      1 
    LXRCRG1  =      0 
    WXRCRG1  =      0 
    PXRCRG1  =      0 
    LXRCRG2  =      0 
    WXRCRG2  =      0 
    PXRCRG2  =      0 
     *** UCB's BSIM4.4.0 new diode model is activated. ***
    *** UCB's Diode Model Parameters ***
    JTSS         =      0 
    JTSSWS       =      0 
    JTSSWGS      =      0 
    JTSD         =      0 
    JTSSWD       =      0 
    JTSSWGD      =      0 
    NJTS         =     20 
    NJTSSW       =     20 
    NJTSSWG      =     20 
    XTSS         =   0.02 
    XTSSWS       =   0.02 
    XTSSWGS      =   0.02 
    XTSD         =   0.02 
    XTSSWD       =   0.02 
    XTSSWGD      =   0.02 
    TNJTS        =      0 
    TNJTSSW      =      0 
    TNJTSSWG     =      0 
    VFBSDOFF     =      0 
    LVFBSDOFF    =      0 
    WVFBSDOFF    =      0 
    PVFBSDOFF    =      0 
    LINTNOI      =      0 
    VTSS         =     10 
    VTSD         =     10 
    VTSSWS       =     10 
    VTSSWD       =     10 
    VTSSWGS      =     10 
    VTSSWGD      =     10 
    TTDIOMOD     =      1 
     *** UCB's BSIM4.5.0 new model is activated. ***
    UD         =      0 
    UD1        =      0 
    UP         =      0 
    LP         =  1e-08 
    TVOFF      =      0 
    TVFBSDOFF  =      0 
    RBPS0      =     50 
    RBPSL      =      0 
    RBPSW      =      0 
    RBPSNF     =      0 
    RBPD0      =     50 
    RBPDL      =      0 
    RBPDW      =      0 
    RBPDNF     =      0 
    RBPBX0     =    100 
    RBPBXL     =      0 
    RBPBXW     =      0 
    RBPBXNF    =      0 
    RBPBY0     =    100 
    RBPBYL     =      0 
    RBPBYW     =      0 
    RBPBYNF    =      0 
    RBSBX0     =    100 
    RBSBY0     =    100 
    RBDBX0     =    100 
    RBDBY0     =    100 
    RBSDBXL    =      0 
    RBSDBXW    =      0 
    RBSDBXNF   =      0 
    RBSDBYL    =      0 
    RBSDBYW    =      0 
    RBSDBYNF   =      0 
    LUD        =      0 
    LUD1       =      0 
    LUP        =      0 
    LLP        =      0 
    LTVOFF     =      0 
    LTVFBSDOFF =      0 
    WUD        =      0 
    WUD1       =      0 
    WUP        =      0 
    WLP        =      0 
    WTVOFF     =      0 
    WTVFBSDOFF =      0 
    PUD        =      0 
    PUD1       =      0 
    PUP        =      0 
    PLP        =      0 
    PTVOFF     =      0 
    PTVFBSDOFF =      0 
    WEB        =      0 
    WEC        =      0 
    KVTH0WE    =      0 
    K2WE       =      0 
    KU0WE      =      0 
    SCREF      =  1e-06 
    WPEMOD     =      0 
    LKVTH0WE   =      0 
    LK2WE      =      0 
    LKU0WE     =      0 
    WKVTH0WE   =      0 
    WK2WE      =      0 
    WKU0WE     =      0 
    PKVTH0WE   =      0 
    PK2WE      =      0 
    PKU0WE     =      0 
     *** UCB's BSIM4.6.0 new model is activated. ***
    AGISL     =      0 
    BGISL     = 2.3e+09 
    CGISL     =    0.5 
    EGISL     =    0.8 
    AIGS      = 0.0136 
    BIGS      = 0.00171 
    CIGS      =  0.075 
    AIGD      = 0.0136 
    BIGD      = 0.00171 
    CIGD      =  0.075 
    NJTSD     =     20 
    NJTSSWD   =     20 
    NJTSSWGD  =     20 
    TNJTSD    =      0 
    TNJTSSWD  =      0 
    TNJTSSWGD =      0 
    DLCIGD    =      0 
    LAGISL    =      0 
    LBGISL    =      0 
    LCGISL    =      0 
    LEGISL    =      0 
    LAIGS     =      0 
    LBIGS     =      0 
    LCIGS     =      0 
    LAIGD     =      0 
    LBIGD     =      0 
    LCIGD     =      0 
    WAGISL    =      0 
    WBGISL    =      0 
    WCGISL    =      0 
    WEGISL    =      0 
    WAIGS     =      0 
    WBIGS     =      0 
    WCIGS     =      0 
    WAIGD     =      0 
    WBIGD     =      0 
    WCIGD     =      0 
    PAGISL    =      0 
    PBGISL    =      0 
    PCGISL    =      0 
    PEGISL    =      0 
    PAIGS     =      0 
    PBIGS     =      0 
    PCIGS     =      0 
    PAIGD     =      0 
    PBIGD     =      0 
    PCIGD     =      0 
     *** UCB's BSIM4.6.1 new model is activated. ***
    CVCHARGEMOD     = 0
    MTRLMOD     = 0
    EOT     = 1.5e-09 
    VDDEOT     =    1.5 
    ADOS     =      1 
    BDOS     =      1 
    PHIG     =   4.05 
    EPSRGATE     =   11.7 
    EASUB     =   4.05 
    EPSRSUB     =   11.7 
    NI0SUB     = 1.45e+10 
    BG0SUB     =   1.16 
    TBGASUB     = 0.000702 
    TBGBSUB     =   1108 
    MINVCV     =      0 
    VOFFCV1     =      0 
    LMINVCV     =      0 
    WMINVCV     =      0 
    PMINVCV     =      0 
    TEMPEOT     =  300.1 
    LEFFEOT     =      1 
    WEFFEOT     =     10 
    UCS         =   1.67 
    UCSTE       = -0.004775 
    LUCS        =      0 
    LUCSTE      =      0 
    WUCS        =      0 
    WUCSTE      =      0 
    PUCS        =      0 
    PUCSTE      =      0 
    JTWEFF      =      0 
     *** UCB's BSIM4.6.6 new model is activated. ***
    GIDLMOD     = 0
    DVTP2       =      0 
    DVTP3       =      0 
    DVTP4       =      0 
    DVTP5       =      0 
    TNFACTOR    =      0 
    TETA0       =      0 
    TVOFFCV     =      0 
    FGIDL       =      0 
    KGIDL       =      0 
    RGIDL       =      1 
    FGISL       =      0 
    KGISL       =      0 
    RGISL       =      1 
    TNOIC       =      0 
    RNOIC       =  0.395 
    LDVTP2      =      0 
    LDVTP3      =      0 
    LDVTP4      =      0 
    LDVTP5      =      0 
    LTNFACTOR   =      0 
    LTETA0      =      0 
    LTVOFFCV    =      0 
    LFGIDL      =      0 
    LKGIDL      =      0 
    LRGIDL      =      0 
    LFGISL      =      0 
    LKGISL      =      0 
    LRGISL      =      0 
    WDVTP2      =      0 
    WDVTP3      =      0 
    WDVTP4      =      0 
    WDVTP5      =      0 
    WTNFACTOR   =      0 
    WTETA0      =      0 
    WTVOFFCV    =      0 
    WFGIDL      =      0 
    WKGIDL      =      0 
    WRGIDL      =      0 
    WFGISL      =      0 
    WKGISL      =      0 
    WRGISL      =      0 
    PDVTP2      =      0 
    PDVTP3      =      0 
    PDVTP4      =      0 
    PDVTP5      =      0 
    PTNFACTOR   =      0 
    PTETA0      =      0 
    PTVOFFCV    =      0 
    PFGIDL      =      0 
    PKGIDL      =      0 
    PRGIDL      =      0 
    PFGISL      =      0 
    PKGISL      =      0 
    PRGISL      =      0 
  
      
 *****************************************************************
 ******  option summary
 ******
 runlvl  = 3         bypass  = 2         
 ******
 lab2 nmos

 ****** dc transfer curves tnom=  25.000 temp=  25.000 ******
  *** parameter 0:vgs  =     0.            ***
  
 x

 volt         current   
             m1         
    0.          0.      
   10.00000m  725.6824f 
   20.00000m    1.2720p 
   30.00000m    1.6754p 
   40.00000m    1.9756p 
   50.00000m    2.2096p 
   60.00000m    2.4053p 
   70.00000m    2.5803p 
   80.00000m    2.7442p 
   90.00000m    2.9024p 
  100.00000m    3.0576p 
  110.00000m    3.2113p 
  120.00000m    3.3644p 
  130.00000m    3.5177p 
  140.00000m    3.6712p 
  150.00000m    3.8255p 
  160.00000m    3.9805p 
  170.00000m    4.1365p 
  180.00000m    4.2935p 
  190.00000m    4.4517p 
  200.00000m    4.6111p 
  210.00000m    4.7717p 
  220.00000m    4.9336p 
  230.00000m    5.0968p 
  240.00000m    5.2614p 
  250.00000m    5.4275p 
  260.00000m    5.5949p 
  270.00000m    5.7639p 
  280.00000m    5.9343p 
  290.00000m    6.1062p 
  300.00000m    6.2797p 
  310.00000m    6.4548p 
  320.00000m    6.6314p 
  330.00000m    6.8096p 
  340.00000m    6.9894p 
  350.00000m    7.1708p 
  360.00000m    7.3539p 
  370.00000m    7.5387p 
  380.00000m    7.7251p 
  390.00000m    7.9132p 
  400.00000m    8.1031p 
  410.00000m    8.2946p 
  420.00000m    8.4879p 
  430.00000m    8.6830p 
  440.00000m    8.8798p 
  450.00000m    9.0784p 
  460.00000m    9.2787p 
  470.00000m    9.4809p 
  480.00000m    9.6849p 
  490.00000m    9.8908p 
  500.00000m   10.0985p 
  510.00000m   10.3080p 
  520.00000m   10.5194p 
  530.00000m   10.7327p 
  540.00000m   10.9479p 
  550.00000m   11.1650p 
  560.00000m   11.3841p 
  570.00000m   11.6050p 
  580.00000m   11.8280p 
  590.00000m   12.0529p 
  600.00000m   12.2797p 
  610.00000m   12.5086p 
  620.00000m   12.7395p 
  630.00000m   12.9723p 
  640.00000m   13.2073p 
  650.00000m   13.4442p 
  660.00000m   13.6832p 
  670.00000m   13.9243p 
  680.00000m   14.1675p 
  690.00000m   14.4128p 
  700.00000m   14.6602p 
  710.00000m   14.9097p 
  720.00000m   15.1614p 
  730.00000m   15.4152p 
  740.00000m   15.6712p 
  750.00000m   15.9293p 
  760.00000m   16.1897p 
  770.00000m   16.4523p 
  780.00000m   16.7171p 
  790.00000m   16.9841p 
  800.00000m   17.2534p 
  810.00000m   17.5250p 
  820.00000m   17.7988p 
  830.00000m   18.0750p 
  840.00000m   18.3535p 
  850.00000m   18.6343p 
  860.00000m   18.9174p 
  870.00000m   19.2029p 
  880.00000m   19.4908p 
  890.00000m   19.7810p 
  900.00000m   20.0737p 
  910.00000m   20.3688p 
  920.00000m   20.6663p 
  930.00000m   20.9663p 
  940.00000m   21.2688p 
  950.00000m   21.5737p 
  960.00000m   21.8811p 
  970.00000m   22.1911p 
  980.00000m   22.5036p 
  990.00000m   22.8186p 
    1.00000    23.1362p 
    1.01000    23.4564p 
    1.02000    23.7792p 
    1.03000    24.1047p 
    1.04000    24.4327p 
    1.05000    24.7634p 
y
 x

 volt         lv9       
             m1         
    0.        390.1888m 
   10.00000m  390.0614m 
   20.00000m  389.9340m 
   30.00000m  389.8066m 
   40.00000m  389.6792m 
   50.00000m  389.5518m 
   60.00000m  389.4244m 
   70.00000m  389.2970m 
   80.00000m  389.1697m 
   90.00000m  389.0423m 
  100.00000m  388.9149m 
  110.00000m  388.7875m 
  120.00000m  388.6601m 
  130.00000m  388.5327m 
  140.00000m  388.4053m 
  150.00000m  388.2779m 
  160.00000m  388.1505m 
  170.00000m  388.0231m 
  180.00000m  387.8957m 
  190.00000m  387.7683m 
  200.00000m  387.6409m 
  210.00000m  387.5135m 
  220.00000m  387.3862m 
  230.00000m  387.2588m 
  240.00000m  387.1314m 
  250.00000m  387.0040m 
  260.00000m  386.8766m 
  270.00000m  386.7492m 
  280.00000m  386.6218m 
  290.00000m  386.4944m 
  300.00000m  386.3670m 
  310.00000m  386.2396m 
  320.00000m  386.1122m 
  330.00000m  385.9848m 
  340.00000m  385.8574m 
  350.00000m  385.7300m 
  360.00000m  385.6026m 
  370.00000m  385.4753m 
  380.00000m  385.3479m 
  390.00000m  385.2205m 
  400.00000m  385.0931m 
  410.00000m  384.9657m 
  420.00000m  384.8383m 
  430.00000m  384.7109m 
  440.00000m  384.5835m 
  450.00000m  384.4561m 
  460.00000m  384.3287m 
  470.00000m  384.2013m 
  480.00000m  384.0739m 
  490.00000m  383.9465m 
  500.00000m  383.8191m 
  510.00000m  383.6918m 
  520.00000m  383.5644m 
  530.00000m  383.4370m 
  540.00000m  383.3096m 
  550.00000m  383.1822m 
  560.00000m  383.0548m 
  570.00000m  382.9274m 
  580.00000m  382.8000m 
  590.00000m  382.6726m 
  600.00000m  382.5452m 
  610.00000m  382.4178m 
  620.00000m  382.2904m 
  630.00000m  382.1630m 
  640.00000m  382.0356m 
  650.00000m  381.9082m 
  660.00000m  381.7809m 
  670.00000m  381.6535m 
  680.00000m  381.5261m 
  690.00000m  381.3987m 
  700.00000m  381.2713m 
  710.00000m  381.1439m 
  720.00000m  381.0165m 
  730.00000m  380.8891m 
  740.00000m  380.7617m 
  750.00000m  380.6343m 
  760.00000m  380.5069m 
  770.00000m  380.3795m 
  780.00000m  380.2521m 
  790.00000m  380.1247m 
  800.00000m  379.9973m 
  810.00000m  379.8700m 
  820.00000m  379.7426m 
  830.00000m  379.6152m 
  840.00000m  379.4878m 
  850.00000m  379.3604m 
  860.00000m  379.2330m 
  870.00000m  379.1056m 
  880.00000m  378.9782m 
  890.00000m  378.8508m 
  900.00000m  378.7234m 
  910.00000m  378.5960m 
  920.00000m  378.4686m 
  930.00000m  378.3412m 
  940.00000m  378.2138m 
  950.00000m  378.0865m 
  960.00000m  377.9591m 
  970.00000m  377.8317m 
  980.00000m  377.7043m 
  990.00000m  377.5769m 
    1.00000   377.4495m 
    1.01000   377.3221m 
    1.02000   377.1947m 
    1.03000   377.0673m 
    1.04000   376.9399m 
    1.05000   376.8125m 
y
 x

 volt         lv10      
             m1         
    0.         42.4892m 
   10.00000m   42.4888m 
   20.00000m   42.4884m 
   30.00000m   42.4880m 
   40.00000m   42.4877m 
   50.00000m   42.4873m 
   60.00000m   42.4869m 
   70.00000m   42.4865m 
   80.00000m   42.4861m 
   90.00000m   42.4857m 
  100.00000m   42.4853m 
  110.00000m   42.4849m 
  120.00000m   42.4845m 
  130.00000m   42.4841m 
  140.00000m   42.4837m 
  150.00000m   42.4833m 
  160.00000m   42.4830m 
  170.00000m   42.4826m 
  180.00000m   42.4822m 
  190.00000m   42.4818m 
  200.00000m   42.4814m 
  210.00000m   42.4810m 
  220.00000m   42.4806m 
  230.00000m   42.4802m 
  240.00000m   42.4798m 
  250.00000m   42.4794m 
  260.00000m   42.4790m 
  270.00000m   42.4786m 
  280.00000m   42.4783m 
  290.00000m   42.4779m 
  300.00000m   42.4775m 
  310.00000m   42.4771m 
  320.00000m   42.4767m 
  330.00000m   42.4763m 
  340.00000m   42.4759m 
  350.00000m   42.4755m 
  360.00000m   42.4751m 
  370.00000m   42.4747m 
  380.00000m   42.4743m 
  390.00000m   42.4739m 
  400.00000m   42.4736m 
  410.00000m   42.4732m 
  420.00000m   42.4728m 
  430.00000m   42.4724m 
  440.00000m   42.4720m 
  450.00000m   42.4716m 
  460.00000m   42.4712m 
  470.00000m   42.4708m 
  480.00000m   42.4704m 
  490.00000m   42.4700m 
  500.00000m   42.4696m 
  510.00000m   42.4692m 
  520.00000m   42.4688m 
  530.00000m   42.4684m 
  540.00000m   42.4681m 
  550.00000m   42.4677m 
  560.00000m   42.4673m 
  570.00000m   42.4669m 
  580.00000m   42.4665m 
  590.00000m   42.4661m 
  600.00000m   42.4657m 
  610.00000m   42.4653m 
  620.00000m   42.4649m 
  630.00000m   42.4645m 
  640.00000m   42.4641m 
  650.00000m   42.4637m 
  660.00000m   42.4633m 
  670.00000m   42.4629m 
  680.00000m   42.4626m 
  690.00000m   42.4622m 
  700.00000m   42.4618m 
  710.00000m   42.4614m 
  720.00000m   42.4610m 
  730.00000m   42.4606m 
  740.00000m   42.4602m 
  750.00000m   42.4598m 
  760.00000m   42.4594m 
  770.00000m   42.4590m 
  780.00000m   42.4586m 
  790.00000m   42.4582m 
  800.00000m   42.4578m 
  810.00000m   42.4574m 
  820.00000m   42.4570m 
  830.00000m   42.4566m 
  840.00000m   42.4563m 
  850.00000m   42.4559m 
  860.00000m   42.4555m 
  870.00000m   42.4551m 
  880.00000m   42.4547m 
  890.00000m   42.4543m 
  900.00000m   42.4539m 
  910.00000m   42.4535m 
  920.00000m   42.4531m 
  930.00000m   42.4527m 
  940.00000m   42.4523m 
  950.00000m   42.4519m 
  960.00000m   42.4515m 
  970.00000m   42.4511m 
  980.00000m   42.4507m 
  990.00000m   42.4503m 
    1.00000    42.4499m 
    1.01000    42.4495m 
    1.02000    42.4492m 
    1.03000    42.4488m 
    1.04000    42.4484m 
    1.05000    42.4480m 
y
 ******
 lab2 nmos

 ****** dc transfer curves tnom=  25.000 temp=  25.000 ******
  *** parameter 0:vgs  =   210.0000m       ***
  
 x

 volt         current   
             m1         
    0.          0.      
   10.00000m    1.0166n 
   20.00000m    1.7785n 
   30.00000m    2.3375n 
   40.00000m    2.7497n 
   50.00000m    3.0678n 
   60.00000m    3.3313n 
   70.00000m    3.5652n 
   80.00000m    3.7833n 
   90.00000m    3.9932n 
  100.00000m    4.1987n 
  110.00000m    4.4021n 
  120.00000m    4.6047n 
  130.00000m    4.8072n 
  140.00000m    5.0103n 
  150.00000m    5.2141n 
  160.00000m    5.4191n 
  170.00000m    5.6254n 
  180.00000m    5.8331n 
  190.00000m    6.0423n 
  200.00000m    6.2532n 
  210.00000m    6.4658n 
  220.00000m    6.6802n 
  230.00000m    6.8964n 
  240.00000m    7.1144n 
  250.00000m    7.3345n 
  260.00000m    7.5565n 
  270.00000m    7.7805n 
  280.00000m    8.0066n 
  290.00000m    8.2347n 
  300.00000m    8.4649n 
  310.00000m    8.6973n 
  320.00000m    8.9319n 
  330.00000m    9.1686n 
  340.00000m    9.4076n 
  350.00000m    9.6488n 
  360.00000m    9.8923n 
  370.00000m   10.1380n 
  380.00000m   10.3860n 
  390.00000m   10.6364n 
  400.00000m   10.8891n 
  410.00000m   11.1442n 
  420.00000m   11.4016n 
  430.00000m   11.6615n 
  440.00000m   11.9237n 
  450.00000m   12.1884n 
  460.00000m   12.4556n 
  470.00000m   12.7252n 
  480.00000m   12.9973n 
  490.00000m   13.2720n 
  500.00000m   13.5491n 
  510.00000m   13.8288n 
  520.00000m   14.1111n 
  530.00000m   14.3959n 
  540.00000m   14.6833n 
  550.00000m   14.9734n 
  560.00000m   15.2660n 
  570.00000m   15.5614n 
  580.00000m   15.8593n 
  590.00000m   16.1600n 
  600.00000m   16.4634n 
  610.00000m   16.7694n 
  620.00000m   17.0783n 
  630.00000m   17.3898n 
  640.00000m   17.7041n 
  650.00000m   18.0213n 
  660.00000m   18.3412n 
  670.00000m   18.6639n 
  680.00000m   18.9895n 
  690.00000m   19.3179n 
  700.00000m   19.6492n 
  710.00000m   19.9834n 
  720.00000m   20.3205n 
  730.00000m   20.6606n 
  740.00000m   21.0035n 
  750.00000m   21.3495n 
  760.00000m   21.6984n 
  770.00000m   22.0503n 
  780.00000m   22.4053n 
  790.00000m   22.7633n 
  800.00000m   23.1243n 
  810.00000m   23.4884n 
  820.00000m   23.8557n 
  830.00000m   24.2260n 
  840.00000m   24.5994n 
  850.00000m   24.9760n 
  860.00000m   25.3558n 
  870.00000m   25.7388n 
  880.00000m   26.1250n 
  890.00000m   26.5144n 
  900.00000m   26.9071n 
  910.00000m   27.3030n 
  920.00000m   27.7022n 
  930.00000m   28.1048n 
  940.00000m   28.5106n 
  950.00000m   28.9199n 
  960.00000m   29.3325n 
  970.00000m   29.7485n 
  980.00000m   30.1679n 
  990.00000m   30.5907n 
    1.00000    31.0170n 
    1.01000    31.4468n 
    1.02000    31.8801n 
    1.03000    32.3169n 
    1.04000    32.7573n 
    1.05000    33.2013n 
y
 x

 volt         lv9       
             m1         
    0.        390.1888m 
   10.00000m  390.0614m 
   20.00000m  389.9340m 
   30.00000m  389.8066m 
   40.00000m  389.6792m 
   50.00000m  389.5518m 
   60.00000m  389.4244m 
   70.00000m  389.2970m 
   80.00000m  389.1697m 
   90.00000m  389.0423m 
  100.00000m  388.9149m 
  110.00000m  388.7875m 
  120.00000m  388.6601m 
  130.00000m  388.5327m 
  140.00000m  388.4053m 
  150.00000m  388.2779m 
  160.00000m  388.1505m 
  170.00000m  388.0231m 
  180.00000m  387.8957m 
  190.00000m  387.7683m 
  200.00000m  387.6409m 
  210.00000m  387.5135m 
  220.00000m  387.3862m 
  230.00000m  387.2588m 
  240.00000m  387.1314m 
  250.00000m  387.0040m 
  260.00000m  386.8766m 
  270.00000m  386.7492m 
  280.00000m  386.6218m 
  290.00000m  386.4944m 
  300.00000m  386.3670m 
  310.00000m  386.2396m 
  320.00000m  386.1122m 
  330.00000m  385.9848m 
  340.00000m  385.8574m 
  350.00000m  385.7300m 
  360.00000m  385.6026m 
  370.00000m  385.4753m 
  380.00000m  385.3479m 
  390.00000m  385.2205m 
  400.00000m  385.0931m 
  410.00000m  384.9657m 
  420.00000m  384.8383m 
  430.00000m  384.7109m 
  440.00000m  384.5835m 
  450.00000m  384.4561m 
  460.00000m  384.3287m 
  470.00000m  384.2013m 
  480.00000m  384.0739m 
  490.00000m  383.9465m 
  500.00000m  383.8191m 
  510.00000m  383.6918m 
  520.00000m  383.5644m 
  530.00000m  383.4370m 
  540.00000m  383.3096m 
  550.00000m  383.1822m 
  560.00000m  383.0548m 
  570.00000m  382.9274m 
  580.00000m  382.8000m 
  590.00000m  382.6726m 
  600.00000m  382.5452m 
  610.00000m  382.4178m 
  620.00000m  382.2904m 
  630.00000m  382.1630m 
  640.00000m  382.0356m 
  650.00000m  381.9082m 
  660.00000m  381.7809m 
  670.00000m  381.6535m 
  680.00000m  381.5261m 
  690.00000m  381.3987m 
  700.00000m  381.2713m 
  710.00000m  381.1439m 
  720.00000m  381.0165m 
  730.00000m  380.8891m 
  740.00000m  380.7617m 
  750.00000m  380.6343m 
  760.00000m  380.5069m 
  770.00000m  380.3795m 
  780.00000m  380.2521m 
  790.00000m  380.1247m 
  800.00000m  379.9973m 
  810.00000m  379.8700m 
  820.00000m  379.7426m 
  830.00000m  379.6152m 
  840.00000m  379.4878m 
  850.00000m  379.3604m 
  860.00000m  379.2330m 
  870.00000m  379.1056m 
  880.00000m  378.9782m 
  890.00000m  378.8508m 
  900.00000m  378.7234m 
  910.00000m  378.5960m 
  920.00000m  378.4686m 
  930.00000m  378.3412m 
  940.00000m  378.2138m 
  950.00000m  378.0865m 
  960.00000m  377.9591m 
  970.00000m  377.8317m 
  980.00000m  377.7043m 
  990.00000m  377.5769m 
    1.00000   377.4495m 
    1.01000   377.3221m 
    1.02000   377.1947m 
    1.03000   377.0673m 
    1.04000   376.9399m 
    1.05000   376.8125m 
y
 x

 volt         lv10      
             m1         
    0.         42.5499m 
   10.00000m   42.5498m 
   20.00000m   42.5497m 
   30.00000m   42.5495m 
   40.00000m   42.5494m 
   50.00000m   42.5493m 
   60.00000m   42.5491m 
   70.00000m   42.5490m 
   80.00000m   42.5489m 
   90.00000m   42.5488m 
  100.00000m   42.5487m 
  110.00000m   42.5485m 
  120.00000m   42.5484m 
  130.00000m   42.5483m 
  140.00000m   42.5482m 
  150.00000m   42.5481m 
  160.00000m   42.5480m 
  170.00000m   42.5479m 
  180.00000m   42.5477m 
  190.00000m   42.5476m 
  200.00000m   42.5475m 
  210.00000m   42.5474m 
  220.00000m   42.5473m 
  230.00000m   42.5472m 
  240.00000m   42.5471m 
  250.00000m   42.5470m 
  260.00000m   42.5469m 
  270.00000m   42.5468m 
  280.00000m   42.5467m 
  290.00000m   42.5466m 
  300.00000m   42.5465m 
  310.00000m   42.5464m 
  320.00000m   42.5463m 
  330.00000m   42.5462m 
  340.00000m   42.5461m 
  350.00000m   42.5460m 
  360.00000m   42.5460m 
  370.00000m   42.5459m 
  380.00000m   42.5458m 
  390.00000m   42.5457m 
  400.00000m   42.5456m 
  410.00000m   42.5455m 
  420.00000m   42.5454m 
  430.00000m   42.5454m 
  440.00000m   42.5453m 
  450.00000m   42.5452m 
  460.00000m   42.5451m 
  470.00000m   42.5451m 
  480.00000m   42.5450m 
  490.00000m   42.5449m 
  500.00000m   42.5448m 
  510.00000m   42.5448m 
  520.00000m   42.5447m 
  530.00000m   42.5446m 
  540.00000m   42.5446m 
  550.00000m   42.5445m 
  560.00000m   42.5444m 
  570.00000m   42.5444m 
  580.00000m   42.5443m 
  590.00000m   42.5443m 
  600.00000m   42.5442m 
  610.00000m   42.5441m 
  620.00000m   42.5441m 
  630.00000m   42.5440m 
  640.00000m   42.5440m 
  650.00000m   42.5439m 
  660.00000m   42.5439m 
  670.00000m   42.5438m 
  680.00000m   42.5438m 
  690.00000m   42.5437m 
  700.00000m   42.5437m 
  710.00000m   42.5436m 
  720.00000m   42.5436m 
  730.00000m   42.5436m 
  740.00000m   42.5435m 
  750.00000m   42.5435m 
  760.00000m   42.5435m 
  770.00000m   42.5434m 
  780.00000m   42.5434m 
  790.00000m   42.5434m 
  800.00000m   42.5433m 
  810.00000m   42.5433m 
  820.00000m   42.5433m 
  830.00000m   42.5433m 
  840.00000m   42.5432m 
  850.00000m   42.5432m 
  860.00000m   42.5432m 
  870.00000m   42.5432m 
  880.00000m   42.5431m 
  890.00000m   42.5431m 
  900.00000m   42.5431m 
  910.00000m   42.5431m 
  920.00000m   42.5431m 
  930.00000m   42.5431m 
  940.00000m   42.5431m 
  950.00000m   42.5431m 
  960.00000m   42.5431m 
  970.00000m   42.5431m 
  980.00000m   42.5431m 
  990.00000m   42.5431m 
    1.00000    42.5431m 
    1.01000    42.5431m 
    1.02000    42.5431m 
    1.03000    42.5431m 
    1.04000    42.5431m 
    1.05000    42.5431m 
y
 ******
 lab2 nmos

 ****** dc transfer curves tnom=  25.000 temp=  25.000 ******
  *** parameter 0:vgs  =   420.0000m       ***
  
 x

 volt         current   
             m1         
    0.          0.      
   10.00000m  423.5530n 
   20.00000m  773.5421n 
   30.00000m    1.0587u 
   40.00000m    1.2882u 
   50.00000m    1.4723u 
   60.00000m    1.6216u 
   70.00000m    1.7461u 
   80.00000m    1.8540u 
   90.00000m    1.9512u 
  100.00000m    2.0417u 
  110.00000m    2.1278u 
  120.00000m    2.2110u 
  130.00000m    2.2923u 
  140.00000m    2.3722u 
  150.00000m    2.4511u 
  160.00000m    2.5292u 
  170.00000m    2.6067u 
  180.00000m    2.6837u 
  190.00000m    2.7604u 
  200.00000m    2.8369u 
  210.00000m    2.9132u 
  220.00000m    2.9893u 
  230.00000m    3.0654u 
  240.00000m    3.1415u 
  250.00000m    3.2175u 
  260.00000m    3.2936u 
  270.00000m    3.3697u 
  280.00000m    3.4459u 
  290.00000m    3.5222u 
  300.00000m    3.5987u 
  310.00000m    3.6752u 
  320.00000m    3.7520u 
  330.00000m    3.8289u 
  340.00000m    3.9059u 
  350.00000m    3.9832u 
  360.00000m    4.0607u 
  370.00000m    4.1384u 
  380.00000m    4.2163u 
  390.00000m    4.2945u 
  400.00000m    4.3729u 
  410.00000m    4.4515u 
  420.00000m    4.5304u 
  430.00000m    4.6096u 
  440.00000m    4.6890u 
  450.00000m    4.7687u 
  460.00000m    4.8487u 
  470.00000m    4.9289u 
  480.00000m    5.0095u 
  490.00000m    5.0903u 
  500.00000m    5.1714u 
  510.00000m    5.2528u 
  520.00000m    5.3346u 
  530.00000m    5.4166u 
  540.00000m    5.4989u 
  550.00000m    5.5816u 
  560.00000m    5.6645u 
  570.00000m    5.7478u 
  580.00000m    5.8314u 
  590.00000m    5.9153u 
  600.00000m    5.9995u 
  610.00000m    6.0840u 
  620.00000m    6.1689u 
  630.00000m    6.2541u 
  640.00000m    6.3396u 
  650.00000m    6.4255u 
  660.00000m    6.5117u 
  670.00000m    6.5982u 
  680.00000m    6.6850u 
  690.00000m    6.7722u 
  700.00000m    6.8597u 
  710.00000m    6.9476u 
  720.00000m    7.0358u 
  730.00000m    7.1244u 
  740.00000m    7.2132u 
  750.00000m    7.3025u 
  760.00000m    7.3920u 
  770.00000m    7.4820u 
  780.00000m    7.5722u 
  790.00000m    7.6628u 
  800.00000m    7.7538u 
  810.00000m    7.8451u 
  820.00000m    7.9367u 
  830.00000m    8.0287u 
  840.00000m    8.1211u 
  850.00000m    8.2138u 
  860.00000m    8.3068u 
  870.00000m    8.4002u 
  880.00000m    8.4940u 
  890.00000m    8.5881u 
  900.00000m    8.6826u 
  910.00000m    8.7774u 
  920.00000m    8.8726u 
  930.00000m    8.9681u 
  940.00000m    9.0640u 
  950.00000m    9.1602u 
  960.00000m    9.2568u 
  970.00000m    9.3538u 
  980.00000m    9.4511u 
  990.00000m    9.5488u 
    1.00000     9.6468u 
    1.01000     9.7452u 
    1.02000     9.8439u 
    1.03000     9.9431u 
    1.04000    10.0426u 
    1.05000    10.1424u 
y
 x

 volt         lv9       
             m1         
    0.        390.1888m 
   10.00000m  390.0614m 
   20.00000m  389.9340m 
   30.00000m  389.8066m 
   40.00000m  389.6792m 
   50.00000m  389.5518m 
   60.00000m  389.4244m 
   70.00000m  389.2970m 
   80.00000m  389.1697m 
   90.00000m  389.0423m 
  100.00000m  388.9149m 
  110.00000m  388.7875m 
  120.00000m  388.6601m 
  130.00000m  388.5327m 
  140.00000m  388.4053m 
  150.00000m  388.2779m 
  160.00000m  388.1505m 
  170.00000m  388.0231m 
  180.00000m  387.8957m 
  190.00000m  387.7683m 
  200.00000m  387.6409m 
  210.00000m  387.5135m 
  220.00000m  387.3862m 
  230.00000m  387.2588m 
  240.00000m  387.1314m 
  250.00000m  387.0040m 
  260.00000m  386.8766m 
  270.00000m  386.7492m 
  280.00000m  386.6218m 
  290.00000m  386.4944m 
  300.00000m  386.3670m 
  310.00000m  386.2396m 
  320.00000m  386.1122m 
  330.00000m  385.9848m 
  340.00000m  385.8574m 
  350.00000m  385.7300m 
  360.00000m  385.6026m 
  370.00000m  385.4753m 
  380.00000m  385.3479m 
  390.00000m  385.2205m 
  400.00000m  385.0931m 
  410.00000m  384.9657m 
  420.00000m  384.8383m 
  430.00000m  384.7109m 
  440.00000m  384.5835m 
  450.00000m  384.4561m 
  460.00000m  384.3287m 
  470.00000m  384.2013m 
  480.00000m  384.0739m 
  490.00000m  383.9465m 
  500.00000m  383.8191m 
  510.00000m  383.6918m 
  520.00000m  383.5644m 
  530.00000m  383.4370m 
  540.00000m  383.3096m 
  550.00000m  383.1822m 
  560.00000m  383.0548m 
  570.00000m  382.9274m 
  580.00000m  382.8000m 
  590.00000m  382.6726m 
  600.00000m  382.5452m 
  610.00000m  382.4178m 
  620.00000m  382.2904m 
  630.00000m  382.1630m 
  640.00000m  382.0356m 
  650.00000m  381.9082m 
  660.00000m  381.7809m 
  670.00000m  381.6535m 
  680.00000m  381.5261m 
  690.00000m  381.3987m 
  700.00000m  381.2713m 
  710.00000m  381.1439m 
  720.00000m  381.0165m 
  730.00000m  380.8891m 
  740.00000m  380.7617m 
  750.00000m  380.6343m 
  760.00000m  380.5069m 
  770.00000m  380.3795m 
  780.00000m  380.2521m 
  790.00000m  380.1247m 
  800.00000m  379.9973m 
  810.00000m  379.8700m 
  820.00000m  379.7426m 
  830.00000m  379.6152m 
  840.00000m  379.4878m 
  850.00000m  379.3604m 
  860.00000m  379.2330m 
  870.00000m  379.1056m 
  880.00000m  378.9782m 
  890.00000m  378.8508m 
  900.00000m  378.7234m 
  910.00000m  378.5960m 
  920.00000m  378.4686m 
  930.00000m  378.3412m 
  940.00000m  378.2138m 
  950.00000m  378.0865m 
  960.00000m  377.9591m 
  970.00000m  377.8317m 
  980.00000m  377.7043m 
  990.00000m  377.5769m 
    1.00000   377.4495m 
    1.01000   377.3221m 
    1.02000   377.1947m 
    1.03000   377.0673m 
    1.04000   376.9399m 
    1.05000   376.8125m 
y
 x

 volt         lv10      
             m1         
    0.         64.5411m 
   10.00000m   64.5884m 
   20.00000m   64.6357m 
   30.00000m   64.6831m 
   40.00000m   64.7306m 
   50.00000m   64.7781m 
   60.00000m   64.8257m 
   70.00000m   64.8734m 
   80.00000m   64.9210m 
   90.00000m   64.9688m 
  100.00000m   65.0166m 
  110.00000m   65.0644m 
  120.00000m   65.1123m 
  130.00000m   65.1603m 
  140.00000m   65.2083m 
  150.00000m   65.2563m 
  160.00000m   65.3045m 
  170.00000m   65.3526m 
  180.00000m   65.4008m 
  190.00000m   65.4491m 
  200.00000m   65.4974m 
  210.00000m   65.5458m 
  220.00000m   65.5942m 
  230.00000m   65.6427m 
  240.00000m   65.6912m 
  250.00000m   65.7398m 
  260.00000m   65.7885m 
  270.00000m   65.8372m 
  280.00000m   65.8859m 
  290.00000m   65.9347m 
  300.00000m   65.9835m 
  310.00000m   66.0324m 
  320.00000m   66.0814m 
  330.00000m   66.1304m 
  340.00000m   66.1794m 
  350.00000m   66.2285m 
  360.00000m   66.2777m 
  370.00000m   66.3269m 
  380.00000m   66.3761m 
  390.00000m   66.4254m 
  400.00000m   66.4748m 
  410.00000m   66.5242m 
  420.00000m   66.5737m 
  430.00000m   66.6232m 
  440.00000m   66.6727m 
  450.00000m   66.7223m 
  460.00000m   66.7720m 
  470.00000m   66.8217m 
  480.00000m   66.8715m 
  490.00000m   66.9213m 
  500.00000m   66.9711m 
  510.00000m   67.0211m 
  520.00000m   67.0710m 
  530.00000m   67.1210m 
  540.00000m   67.1711m 
  550.00000m   67.2212m 
  560.00000m   67.2714m 
  570.00000m   67.3216m 
  580.00000m   67.3718m 
  590.00000m   67.4221m 
  600.00000m   67.4725m 
  610.00000m   67.5229m 
  620.00000m   67.5733m 
  630.00000m   67.6238m 
  640.00000m   67.6744m 
  650.00000m   67.7250m 
  660.00000m   67.7756m 
  670.00000m   67.8263m 
  680.00000m   67.8771m 
  690.00000m   67.9279m 
  700.00000m   67.9787m 
  710.00000m   68.0296m 
  720.00000m   68.0805m 
  730.00000m   68.1315m 
  740.00000m   68.1825m 
  750.00000m   68.2336m 
  760.00000m   68.2847m 
  770.00000m   68.3359m 
  780.00000m   68.3871m 
  790.00000m   68.4384m 
  800.00000m   68.4897m 
  810.00000m   68.5411m 
  820.00000m   68.5925m 
  830.00000m   68.6439m 
  840.00000m   68.6954m 
  850.00000m   68.7470m 
  860.00000m   68.7986m 
  870.00000m   68.8502m 
  880.00000m   68.9019m 
  890.00000m   68.9536m 
  900.00000m   69.0054m 
  910.00000m   69.0572m 
  920.00000m   69.1091m 
  930.00000m   69.1610m 
  940.00000m   69.2130m 
  950.00000m   69.2650m 
  960.00000m   69.3170m 
  970.00000m   69.3691m 
  980.00000m   69.4213m 
  990.00000m   69.4735m 
    1.00000    69.5257m 
    1.01000    69.5780m 
    1.02000    69.6303m 
    1.03000    69.6827m 
    1.04000    69.7351m 
    1.05000    69.7875m 
y
 ******
 lab2 nmos

 ****** dc transfer curves tnom=  25.000 temp=  25.000 ******
  *** parameter 0:vgs  =   630.0000m       ***
  
 x

 volt         current   
             m1         
    0.          0.      
   10.00000m    2.8402u 
   20.00000m    5.4603u 
   30.00000m    7.8746u 
   40.00000m   10.0966u 
   50.00000m   12.1385u 
   60.00000m   14.0122u 
   70.00000m   15.7287u 
   80.00000m   17.2987u 
   90.00000m   18.7326u 
  100.00000m   20.0408u 
  110.00000m   21.2338u 
  120.00000m   22.3220u 
  130.00000m   23.3164u 
  140.00000m   24.2280u 
  150.00000m   25.0678u 
  160.00000m   25.8463u 
  170.00000m   26.5732u 
  180.00000m   27.2568u 
  190.00000m   27.9042u 
  200.00000m   28.5212u 
  210.00000m   29.1122u 
  220.00000m   29.6810u 
  230.00000m   30.2303u 
  240.00000m   30.7625u 
  250.00000m   31.2794u 
  260.00000m   31.7826u 
  270.00000m   32.2735u 
  280.00000m   32.7531u 
  290.00000m   33.2224u 
  300.00000m   33.6823u 
  310.00000m   34.1334u 
  320.00000m   34.5766u 
  330.00000m   35.0123u 
  340.00000m   35.4411u 
  350.00000m   35.8634u 
  360.00000m   36.2797u 
  370.00000m   36.6904u 
  380.00000m   37.0959u 
  390.00000m   37.4964u 
  400.00000m   37.8923u 
  410.00000m   38.2838u 
  420.00000m   38.6713u 
  430.00000m   39.0548u 
  440.00000m   39.4347u 
  450.00000m   39.8112u 
  460.00000m   40.1843u 
  470.00000m   40.5544u 
  480.00000m   40.9215u 
  490.00000m   41.2859u 
  500.00000m   41.6476u 
  510.00000m   42.0067u 
  520.00000m   42.3635u 
  530.00000m   42.7180u 
  540.00000m   43.0703u 
  550.00000m   43.4205u 
  560.00000m   43.7687u 
  570.00000m   44.1151u 
  580.00000m   44.4596u 
  590.00000m   44.8024u 
  600.00000m   45.1436u 
  610.00000m   45.4832u 
  620.00000m   45.8212u 
  630.00000m   46.1578u 
  640.00000m   46.4930u 
  650.00000m   46.8269u 
  660.00000m   47.1595u 
  670.00000m   47.4909u 
  680.00000m   47.8211u 
  690.00000m   48.1502u 
  700.00000m   48.4781u 
  710.00000m   48.8051u 
  720.00000m   49.1310u 
  730.00000m   49.4560u 
  740.00000m   49.7800u 
  750.00000m   50.1031u 
  760.00000m   50.4254u 
  770.00000m   50.7469u 
  780.00000m   51.0675u 
  790.00000m   51.3874u 
  800.00000m   51.7066u 
  810.00000m   52.0250u 
  820.00000m   52.3428u 
  830.00000m   52.6599u 
  840.00000m   52.9763u 
  850.00000m   53.2922u 
  860.00000m   53.6074u 
  870.00000m   53.9221u 
  880.00000m   54.2362u 
  890.00000m   54.5498u 
  900.00000m   54.8629u 
  910.00000m   55.1755u 
  920.00000m   55.4876u 
  930.00000m   55.7993u 
  940.00000m   56.1105u 
  950.00000m   56.4213u 
  960.00000m   56.7317u 
  970.00000m   57.0417u 
  980.00000m   57.3513u 
  990.00000m   57.6605u 
    1.00000    57.9694u 
    1.01000    58.2779u 
    1.02000    58.5861u 
    1.03000    58.8940u 
    1.04000    59.2016u 
    1.05000    59.5089u 
y
 x

 volt         lv9       
             m1         
    0.        390.1888m 
   10.00000m  390.0614m 
   20.00000m  389.9340m 
   30.00000m  389.8066m 
   40.00000m  389.6792m 
   50.00000m  389.5518m 
   60.00000m  389.4244m 
   70.00000m  389.2970m 
   80.00000m  389.1697m 
   90.00000m  389.0423m 
  100.00000m  388.9149m 
  110.00000m  388.7875m 
  120.00000m  388.6601m 
  130.00000m  388.5327m 
  140.00000m  388.4053m 
  150.00000m  388.2779m 
  160.00000m  388.1505m 
  170.00000m  388.0231m 
  180.00000m  387.8957m 
  190.00000m  387.7683m 
  200.00000m  387.6409m 
  210.00000m  387.5135m 
  220.00000m  387.3862m 
  230.00000m  387.2588m 
  240.00000m  387.1314m 
  250.00000m  387.0040m 
  260.00000m  386.8766m 
  270.00000m  386.7492m 
  280.00000m  386.6218m 
  290.00000m  386.4944m 
  300.00000m  386.3670m 
  310.00000m  386.2396m 
  320.00000m  386.1122m 
  330.00000m  385.9848m 
  340.00000m  385.8574m 
  350.00000m  385.7300m 
  360.00000m  385.6026m 
  370.00000m  385.4753m 
  380.00000m  385.3479m 
  390.00000m  385.2205m 
  400.00000m  385.0931m 
  410.00000m  384.9657m 
  420.00000m  384.8383m 
  430.00000m  384.7109m 
  440.00000m  384.5835m 
  450.00000m  384.4561m 
  460.00000m  384.3287m 
  470.00000m  384.2013m 
  480.00000m  384.0739m 
  490.00000m  383.9465m 
  500.00000m  383.8191m 
  510.00000m  383.6918m 
  520.00000m  383.5644m 
  530.00000m  383.4370m 
  540.00000m  383.3096m 
  550.00000m  383.1822m 
  560.00000m  383.0548m 
  570.00000m  382.9274m 
  580.00000m  382.8000m 
  590.00000m  382.6726m 
  600.00000m  382.5452m 
  610.00000m  382.4178m 
  620.00000m  382.2904m 
  630.00000m  382.1630m 
  640.00000m  382.0356m 
  650.00000m  381.9082m 
  660.00000m  381.7809m 
  670.00000m  381.6535m 
  680.00000m  381.5261m 
  690.00000m  381.3987m 
  700.00000m  381.2713m 
  710.00000m  381.1439m 
  720.00000m  381.0165m 
  730.00000m  380.8891m 
  740.00000m  380.7617m 
  750.00000m  380.6343m 
  760.00000m  380.5069m 
  770.00000m  380.3795m 
  780.00000m  380.2521m 
  790.00000m  380.1247m 
  800.00000m  379.9973m 
  810.00000m  379.8700m 
  820.00000m  379.7426m 
  830.00000m  379.6152m 
  840.00000m  379.4878m 
  850.00000m  379.3604m 
  860.00000m  379.2330m 
  870.00000m  379.1056m 
  880.00000m  378.9782m 
  890.00000m  378.8508m 
  900.00000m  378.7234m 
  910.00000m  378.5960m 
  920.00000m  378.4686m 
  930.00000m  378.3412m 
  940.00000m  378.2138m 
  950.00000m  378.0865m 
  960.00000m  377.9591m 
  970.00000m  377.8317m 
  980.00000m  377.7043m 
  990.00000m  377.5769m 
    1.00000   377.4495m 
    1.01000   377.3221m 
    1.02000   377.1947m 
    1.03000   377.0673m 
    1.04000   376.9399m 
    1.05000   376.8125m 
y
 x

 volt         lv10      
             m1         
    0.        160.2169m 
   10.00000m  160.2626m 
   20.00000m  160.3084m 
   30.00000m  160.3541m 
   40.00000m  160.3998m 
   50.00000m  160.4456m 
   60.00000m  160.4912m 
   70.00000m  160.5369m 
   80.00000m  160.5826m 
   90.00000m  160.6282m 
  100.00000m  160.6738m 
  110.00000m  160.7194m 
  120.00000m  160.7650m 
  130.00000m  160.8106m 
  140.00000m  160.8561m 
  150.00000m  160.9017m 
  160.00000m  160.9472m 
  170.00000m  160.9927m 
  180.00000m  161.0382m 
  190.00000m  161.0837m 
  200.00000m  161.1291m 
  210.00000m  161.1746m 
  220.00000m  161.2200m 
  230.00000m  161.2654m 
  240.00000m  161.3108m 
  250.00000m  161.3561m 
  260.00000m  161.4015m 
  270.00000m  161.4468m 
  280.00000m  161.4922m 
  290.00000m  161.5375m 
  300.00000m  161.5828m 
  310.00000m  161.6280m 
  320.00000m  161.6733m 
  330.00000m  161.7185m 
  340.00000m  161.7638m 
  350.00000m  161.8090m 
  360.00000m  161.8542m 
  370.00000m  161.8993m 
  380.00000m  161.9445m 
  390.00000m  161.9896m 
  400.00000m  162.0348m 
  410.00000m  162.0799m 
  420.00000m  162.1250m 
  430.00000m  162.1701m 
  440.00000m  162.2151m 
  450.00000m  162.2602m 
  460.00000m  162.3052m 
  470.00000m  162.3502m 
  480.00000m  162.3952m 
  490.00000m  162.4402m 
  500.00000m  162.4851m 
  510.00000m  162.5301m 
  520.00000m  162.5750m 
  530.00000m  162.6199m 
  540.00000m  162.6648m 
  550.00000m  162.7097m 
  560.00000m  162.7546m 
  570.00000m  162.7994m 
  580.00000m  162.8443m 
  590.00000m  162.8891m 
  600.00000m  162.9339m 
  610.00000m  162.9787m 
  620.00000m  163.0235m 
  630.00000m  163.0682m 
  640.00000m  163.1130m 
  650.00000m  163.1577m 
  660.00000m  163.2024m 
  670.00000m  163.2471m 
  680.00000m  163.2918m 
  690.00000m  163.3364m 
  700.00000m  163.3811m 
  710.00000m  163.4257m 
  720.00000m  163.4703m 
  730.00000m  163.5149m 
  740.00000m  163.5595m 
  750.00000m  163.6040m 
  760.00000m  163.6486m 
  770.00000m  163.6931m 
  780.00000m  163.7376m 
  790.00000m  163.7821m 
  800.00000m  163.8266m 
  810.00000m  163.8711m 
  820.00000m  163.9155m 
  830.00000m  163.9600m 
  840.00000m  164.0044m 
  850.00000m  164.0488m 
  860.00000m  164.0932m 
  870.00000m  164.1375m 
  880.00000m  164.1819m 
  890.00000m  164.2262m 
  900.00000m  164.2706m 
  910.00000m  164.3149m 
  920.00000m  164.3592m 
  930.00000m  164.4034m 
  940.00000m  164.4477m 
  950.00000m  164.4920m 
  960.00000m  164.5362m 
  970.00000m  164.5804m 
  980.00000m  164.6246m 
  990.00000m  164.6688m 
    1.00000   164.7130m 
    1.01000   164.7571m 
    1.02000   164.8012m 
    1.03000   164.8454m 
    1.04000   164.8895m 
    1.05000   164.9336m 
y
 ******
 lab2 nmos

 ****** dc transfer curves tnom=  25.000 temp=  25.000 ******
  *** parameter 0:vgs  =   840.0000m       ***
  
 x

 volt         current   
             m1         
    0.          0.      
   10.00000m    4.8332u 
   20.00000m    9.3881u 
   30.00000m   13.6802u 
   40.00000m   17.7243u 
   50.00000m   21.5337u 
   60.00000m   25.1211u 
   70.00000m   28.4985u 
   80.00000m   31.6769u 
   90.00000m   34.6668u 
  100.00000m   37.4782u 
  110.00000m   40.1206u 
  120.00000m   42.6030u 
  130.00000m   44.9341u 
  140.00000m   47.1224u 
  150.00000m   49.1762u 
  160.00000m   51.1038u 
  170.00000m   52.9133u 
  180.00000m   54.6129u 
  190.00000m   56.2110u 
  200.00000m   57.7158u 
  210.00000m   59.1355u 
  220.00000m   60.4783u 
  230.00000m   61.7516u 
  240.00000m   62.9626u 
  250.00000m   64.1179u 
  260.00000m   65.2230u 
  270.00000m   66.2832u 
  280.00000m   67.3027u 
  290.00000m   68.2853u 
  300.00000m   69.2344u 
  310.00000m   70.1528u 
  320.00000m   71.0431u 
  330.00000m   71.9075u 
  340.00000m   72.7481u 
  350.00000m   73.5665u 
  360.00000m   74.3644u 
  370.00000m   75.1432u 
  380.00000m   75.9042u 
  390.00000m   76.6486u 
  400.00000m   77.3774u 
  410.00000m   78.0917u 
  420.00000m   78.7924u 
  430.00000m   79.4801u 
  440.00000m   80.1558u 
  450.00000m   80.8200u 
  460.00000m   81.4734u 
  470.00000m   82.1166u 
  480.00000m   82.7502u 
  490.00000m   83.3746u 
  500.00000m   83.9903u 
  510.00000m   84.5978u 
  520.00000m   85.1974u 
  530.00000m   85.7895u 
  540.00000m   86.3745u 
  550.00000m   86.9527u 
  560.00000m   87.5244u 
  570.00000m   88.0899u 
  580.00000m   88.6495u 
  590.00000m   89.2034u 
  600.00000m   89.7518u 
  610.00000m   90.2950u 
  620.00000m   90.8333u 
  630.00000m   91.3667u 
  640.00000m   91.8955u 
  650.00000m   92.4198u 
  660.00000m   92.9399u 
  670.00000m   93.4559u 
  680.00000m   93.9680u 
  690.00000m   94.4762u 
  700.00000m   94.9807u 
  710.00000m   95.4817u 
  720.00000m   95.9793u 
  730.00000m   96.4736u 
  740.00000m   96.9647u 
  750.00000m   97.4527u 
  760.00000m   97.9377u 
  770.00000m   98.4199u 
  780.00000m   98.8993u 
  790.00000m   99.3759u 
  800.00000m   99.8500u 
  810.00000m  100.3215u 
  820.00000m  100.7905u 
  830.00000m  101.2572u 
  840.00000m  101.7216u 
  850.00000m  102.1837u 
  860.00000m  102.6436u 
  870.00000m  103.1015u 
  880.00000m  103.5573u 
  890.00000m  104.0111u 
  900.00000m  104.4629u 
  910.00000m  104.9129u 
  920.00000m  105.3610u 
  930.00000m  105.8074u 
  940.00000m  106.2521u 
  950.00000m  106.6950u 
  960.00000m  107.1363u 
  970.00000m  107.5760u 
  980.00000m  108.0142u 
  990.00000m  108.4509u 
    1.00000   108.8860u 
    1.01000   109.3198u 
    1.02000   109.7521u 
    1.03000   110.1831u 
    1.04000   110.6127u 
    1.05000   111.0411u 
y
 x

 volt         lv9       
             m1         
    0.        390.1888m 
   10.00000m  390.0614m 
   20.00000m  389.9340m 
   30.00000m  389.8066m 
   40.00000m  389.6792m 
   50.00000m  389.5518m 
   60.00000m  389.4244m 
   70.00000m  389.2970m 
   80.00000m  389.1697m 
   90.00000m  389.0423m 
  100.00000m  388.9149m 
  110.00000m  388.7875m 
  120.00000m  388.6601m 
  130.00000m  388.5327m 
  140.00000m  388.4053m 
  150.00000m  388.2779m 
  160.00000m  388.1505m 
  170.00000m  388.0231m 
  180.00000m  387.8957m 
  190.00000m  387.7683m 
  200.00000m  387.6409m 
  210.00000m  387.5135m 
  220.00000m  387.3862m 
  230.00000m  387.2588m 
  240.00000m  387.1314m 
  250.00000m  387.0040m 
  260.00000m  386.8766m 
  270.00000m  386.7492m 
  280.00000m  386.6218m 
  290.00000m  386.4944m 
  300.00000m  386.3670m 
  310.00000m  386.2396m 
  320.00000m  386.1122m 
  330.00000m  385.9848m 
  340.00000m  385.8574m 
  350.00000m  385.7300m 
  360.00000m  385.6026m 
  370.00000m  385.4753m 
  380.00000m  385.3479m 
  390.00000m  385.2205m 
  400.00000m  385.0931m 
  410.00000m  384.9657m 
  420.00000m  384.8383m 
  430.00000m  384.7109m 
  440.00000m  384.5835m 
  450.00000m  384.4561m 
  460.00000m  384.3287m 
  470.00000m  384.2013m 
  480.00000m  384.0739m 
  490.00000m  383.9465m 
  500.00000m  383.8191m 
  510.00000m  383.6918m 
  520.00000m  383.5644m 
  530.00000m  383.4370m 
  540.00000m  383.3096m 
  550.00000m  383.1822m 
  560.00000m  383.0548m 
  570.00000m  382.9274m 
  580.00000m  382.8000m 
  590.00000m  382.6726m 
  600.00000m  382.5452m 
  610.00000m  382.4178m 
  620.00000m  382.2904m 
  630.00000m  382.1630m 
  640.00000m  382.0356m 
  650.00000m  381.9082m 
  660.00000m  381.7809m 
  670.00000m  381.6535m 
  680.00000m  381.5261m 
  690.00000m  381.3987m 
  700.00000m  381.2713m 
  710.00000m  381.1439m 
  720.00000m  381.0165m 
  730.00000m  380.8891m 
  740.00000m  380.7617m 
  750.00000m  380.6343m 
  760.00000m  380.5069m 
  770.00000m  380.3795m 
  780.00000m  380.2521m 
  790.00000m  380.1247m 
  800.00000m  379.9973m 
  810.00000m  379.8700m 
  820.00000m  379.7426m 
  830.00000m  379.6152m 
  840.00000m  379.4878m 
  850.00000m  379.3604m 
  860.00000m  379.2330m 
  870.00000m  379.1056m 
  880.00000m  378.9782m 
  890.00000m  378.8508m 
  900.00000m  378.7234m 
  910.00000m  378.5960m 
  920.00000m  378.4686m 
  930.00000m  378.3412m 
  940.00000m  378.2138m 
  950.00000m  378.0865m 
  960.00000m  377.9591m 
  970.00000m  377.8317m 
  980.00000m  377.7043m 
  990.00000m  377.5769m 
    1.00000   377.4495m 
    1.01000   377.3221m 
    1.02000   377.1947m 
    1.03000   377.0673m 
    1.04000   376.9399m 
    1.05000   376.8125m 
y
 x

 volt         lv10      
             m1         
    0.        228.8919m 
   10.00000m  228.9222m 
   20.00000m  228.9526m 
   30.00000m  228.9830m 
   40.00000m  229.0133m 
   50.00000m  229.0436m 
   60.00000m  229.0740m 
   70.00000m  229.1043m 
   80.00000m  229.1346m 
   90.00000m  229.1649m 
  100.00000m  229.1952m 
  110.00000m  229.2255m 
  120.00000m  229.2558m 
  130.00000m  229.2861m 
  140.00000m  229.3164m 
  150.00000m  229.3466m 
  160.00000m  229.3769m 
  170.00000m  229.4072m 
  180.00000m  229.4374m 
  190.00000m  229.4676m 
  200.00000m  229.4979m 
  210.00000m  229.5281m 
  220.00000m  229.5583m 
  230.00000m  229.5885m 
  240.00000m  229.6187m 
  250.00000m  229.6489m 
  260.00000m  229.6791m 
  270.00000m  229.7093m 
  280.00000m  229.7395m 
  290.00000m  229.7696m 
  300.00000m  229.7998m 
  310.00000m  229.8300m 
  320.00000m  229.8601m 
  330.00000m  229.8903m 
  340.00000m  229.9204m 
  350.00000m  229.9505m 
  360.00000m  229.9806m 
  370.00000m  230.0107m 
  380.00000m  230.0409m 
  390.00000m  230.0710m 
  400.00000m  230.1010m 
  410.00000m  230.1311m 
  420.00000m  230.1612m 
  430.00000m  230.1913m 
  440.00000m  230.2213m 
  450.00000m  230.2514m 
  460.00000m  230.2814m 
  470.00000m  230.3115m 
  480.00000m  230.3415m 
  490.00000m  230.3716m 
  500.00000m  230.4016m 
  510.00000m  230.4316m 
  520.00000m  230.4616m 
  530.00000m  230.4916m 
  540.00000m  230.5216m 
  550.00000m  230.5516m 
  560.00000m  230.5816m 
  570.00000m  230.6115m 
  580.00000m  230.6415m 
  590.00000m  230.6715m 
  600.00000m  230.7014m 
  610.00000m  230.7314m 
  620.00000m  230.7613m 
  630.00000m  230.7912m 
  640.00000m  230.8211m 
  650.00000m  230.8511m 
  660.00000m  230.8810m 
  670.00000m  230.9109m 
  680.00000m  230.9408m 
  690.00000m  230.9707m 
  700.00000m  231.0005m 
  710.00000m  231.0304m 
  720.00000m  231.0603m 
  730.00000m  231.0901m 
  740.00000m  231.1200m 
  750.00000m  231.1498m 
  760.00000m  231.1797m 
  770.00000m  231.2095m 
  780.00000m  231.2394m 
  790.00000m  231.2692m 
  800.00000m  231.2990m 
  810.00000m  231.3288m 
  820.00000m  231.3586m 
  830.00000m  231.3884m 
  840.00000m  231.4182m 
  850.00000m  231.4479m 
  860.00000m  231.4777m 
  870.00000m  231.5075m 
  880.00000m  231.5372m 
  890.00000m  231.5670m 
  900.00000m  231.5967m 
  910.00000m  231.6265m 
  920.00000m  231.6562m 
  930.00000m  231.6859m 
  940.00000m  231.7156m 
  950.00000m  231.7453m 
  960.00000m  231.7751m 
  970.00000m  231.8047m 
  980.00000m  231.8344m 
  990.00000m  231.8641m 
    1.00000   231.8938m 
    1.01000   231.9235m 
    1.02000   231.9531m 
    1.03000   231.9828m 
    1.04000   232.0124m 
    1.05000   232.0421m 
y
 ******
 lab2 nmos

 ****** dc transfer curves tnom=  25.000 temp=  25.000 ******
  *** parameter 0:vgs  =     1.0500        ***
  
 x

 volt         current   
             m1         
    0.          0.      
   10.00000m    6.4936u 
   20.00000m   12.6722u 
   30.00000m   18.5518u 
   40.00000m   24.1475u 
   50.00000m   29.4734u 
   60.00000m   34.5428u 
   70.00000m   39.3680u 
   80.00000m   43.9607u 
   90.00000m   48.3319u 
  100.00000m   52.4919u 
  110.00000m   56.4506u 
  120.00000m   60.2172u 
  130.00000m   63.8005u 
  140.00000m   67.2090u 
  150.00000m   70.4507u 
  160.00000m   73.5333u 
  170.00000m   76.4643u 
  180.00000m   79.2508u 
  190.00000m   81.8998u 
  200.00000m   84.4184u 
  210.00000m   86.8132u 
  220.00000m   89.0910u 
  230.00000m   91.2585u 
  240.00000m   93.3224u 
  250.00000m   95.2893u 
  260.00000m   97.1656u 
  270.00000m   98.9577u 
  280.00000m  100.6717u 
  290.00000m  102.3135u 
  300.00000m  103.8885u 
  310.00000m  105.4017u 
  320.00000m  106.8578u 
  330.00000m  108.2611u 
  340.00000m  109.6154u 
  350.00000m  110.9242u 
  360.00000m  112.1909u 
  370.00000m  113.4183u 
  380.00000m  114.6092u 
  390.00000m  115.7660u 
  400.00000m  116.8910u 
  410.00000m  117.9862u 
  420.00000m  119.0536u 
  430.00000m  120.0948u 
  440.00000m  121.1116u 
  450.00000m  122.1052u 
  460.00000m  123.0772u 
  470.00000m  124.0288u 
  480.00000m  124.9610u 
  490.00000m  125.8750u 
  500.00000m  126.7718u 
  510.00000m  127.6522u 
  520.00000m  128.5172u 
  530.00000m  129.3674u 
  540.00000m  130.2036u 
  550.00000m  131.0266u 
  560.00000m  131.8369u 
  570.00000m  132.6351u 
  580.00000m  133.4218u 
  590.00000m  134.1975u 
  600.00000m  134.9627u 
  610.00000m  135.7178u 
  620.00000m  136.4634u 
  630.00000m  137.1996u 
  640.00000m  137.9271u 
  650.00000m  138.6460u 
  660.00000m  139.3568u 
  670.00000m  140.0597u 
  680.00000m  140.7551u 
  690.00000m  141.4433u 
  700.00000m  142.1245u 
  710.00000m  142.7989u 
  720.00000m  143.4669u 
  730.00000m  144.1286u 
  740.00000m  144.7843u 
  750.00000m  145.4341u 
  760.00000m  146.0784u 
  770.00000m  146.7171u 
  780.00000m  147.3506u 
  790.00000m  147.9791u 
  800.00000m  148.6025u 
  810.00000m  149.2212u 
  820.00000m  149.8353u 
  830.00000m  150.4449u 
  840.00000m  151.0502u 
  850.00000m  151.6512u 
  860.00000m  152.2482u 
  870.00000m  152.8411u 
  880.00000m  153.4302u 
  890.00000m  154.0156u 
  900.00000m  154.5973u 
  910.00000m  155.1755u 
  920.00000m  155.7503u 
  930.00000m  156.3216u 
  940.00000m  156.8898u 
  950.00000m  157.4547u 
  960.00000m  158.0166u 
  970.00000m  158.5755u 
  980.00000m  159.1314u 
  990.00000m  159.6845u 
    1.00000   160.2348u 
    1.01000   160.7824u 
    1.02000   161.3273u 
    1.03000   161.8696u 
    1.04000   162.4095u 
    1.05000   162.9468u 
y
 x

 volt         lv9       
             m1         
    0.        390.1888m 
   10.00000m  390.0614m 
   20.00000m  389.9340m 
   30.00000m  389.8066m 
   40.00000m  389.6792m 
   50.00000m  389.5518m 
   60.00000m  389.4244m 
   70.00000m  389.2970m 
   80.00000m  389.1697m 
   90.00000m  389.0423m 
  100.00000m  388.9149m 
  110.00000m  388.7875m 
  120.00000m  388.6601m 
  130.00000m  388.5327m 
  140.00000m  388.4053m 
  150.00000m  388.2779m 
  160.00000m  388.1505m 
  170.00000m  388.0231m 
  180.00000m  387.8957m 
  190.00000m  387.7683m 
  200.00000m  387.6409m 
  210.00000m  387.5135m 
  220.00000m  387.3862m 
  230.00000m  387.2588m 
  240.00000m  387.1314m 
  250.00000m  387.0040m 
  260.00000m  386.8766m 
  270.00000m  386.7492m 
  280.00000m  386.6218m 
  290.00000m  386.4944m 
  300.00000m  386.3670m 
  310.00000m  386.2396m 
  320.00000m  386.1122m 
  330.00000m  385.9848m 
  340.00000m  385.8574m 
  350.00000m  385.7300m 
  360.00000m  385.6026m 
  370.00000m  385.4753m 
  380.00000m  385.3479m 
  390.00000m  385.2205m 
  400.00000m  385.0931m 
  410.00000m  384.9657m 
  420.00000m  384.8383m 
  430.00000m  384.7109m 
  440.00000m  384.5835m 
  450.00000m  384.4561m 
  460.00000m  384.3287m 
  470.00000m  384.2013m 
  480.00000m  384.0739m 
  490.00000m  383.9465m 
  500.00000m  383.8191m 
  510.00000m  383.6918m 
  520.00000m  383.5644m 
  530.00000m  383.4370m 
  540.00000m  383.3096m 
  550.00000m  383.1822m 
  560.00000m  383.0548m 
  570.00000m  382.9274m 
  580.00000m  382.8000m 
  590.00000m  382.6726m 
  600.00000m  382.5452m 
  610.00000m  382.4178m 
  620.00000m  382.2904m 
  630.00000m  382.1630m 
  640.00000m  382.0356m 
  650.00000m  381.9082m 
  660.00000m  381.7809m 
  670.00000m  381.6535m 
  680.00000m  381.5261m 
  690.00000m  381.3987m 
  700.00000m  381.2713m 
  710.00000m  381.1439m 
  720.00000m  381.0165m 
  730.00000m  380.8891m 
  740.00000m  380.7617m 
  750.00000m  380.6343m 
  760.00000m  380.5069m 
  770.00000m  380.3795m 
  780.00000m  380.2521m 
  790.00000m  380.1247m 
  800.00000m  379.9973m 
  810.00000m  379.8700m 
  820.00000m  379.7426m 
  830.00000m  379.6152m 
  840.00000m  379.4878m 
  850.00000m  379.3604m 
  860.00000m  379.2330m 
  870.00000m  379.1056m 
  880.00000m  378.9782m 
  890.00000m  378.8508m 
  900.00000m  378.7234m 
  910.00000m  378.5960m 
  920.00000m  378.4686m 
  930.00000m  378.3412m 
  940.00000m  378.2138m 
  950.00000m  378.0865m 
  960.00000m  377.9591m 
  970.00000m  377.8317m 
  980.00000m  377.7043m 
  990.00000m  377.5769m 
    1.00000   377.4495m 
    1.01000   377.3221m 
    1.02000   377.1947m 
    1.03000   377.0673m 
    1.04000   376.9399m 
    1.05000   376.8125m 
y
 x

 volt         lv10      
             m1         
    0.        283.0796m 
   10.00000m  283.1024m 
   20.00000m  283.1253m 
   30.00000m  283.1481m 
   40.00000m  283.1710m 
   50.00000m  283.1938m 
   60.00000m  283.2167m 
   70.00000m  283.2395m 
   80.00000m  283.2623m 
   90.00000m  283.2851m 
  100.00000m  283.3079m 
  110.00000m  283.3308m 
  120.00000m  283.3536m 
  130.00000m  283.3764m 
  140.00000m  283.3992m 
  150.00000m  283.4220m 
  160.00000m  283.4447m 
  170.00000m  283.4675m 
  180.00000m  283.4903m 
  190.00000m  283.5131m 
  200.00000m  283.5359m 
  210.00000m  283.5586m 
  220.00000m  283.5814m 
  230.00000m  283.6041m 
  240.00000m  283.6269m 
  250.00000m  283.6496m 
  260.00000m  283.6724m 
  270.00000m  283.6951m 
  280.00000m  283.7179m 
  290.00000m  283.7406m 
  300.00000m  283.7633m 
  310.00000m  283.7860m 
  320.00000m  283.8087m 
  330.00000m  283.8315m 
  340.00000m  283.8542m 
  350.00000m  283.8769m 
  360.00000m  283.8996m 
  370.00000m  283.9223m 
  380.00000m  283.9450m 
  390.00000m  283.9676m 
  400.00000m  283.9903m 
  410.00000m  284.0130m 
  420.00000m  284.0357m 
  430.00000m  284.0583m 
  440.00000m  284.0810m 
  450.00000m  284.1037m 
  460.00000m  284.1263m 
  470.00000m  284.1490m 
  480.00000m  284.1716m 
  490.00000m  284.1942m 
  500.00000m  284.2169m 
  510.00000m  284.2395m 
  520.00000m  284.2621m 
  530.00000m  284.2848m 
  540.00000m  284.3074m 
  550.00000m  284.3300m 
  560.00000m  284.3526m 
  570.00000m  284.3752m 
  580.00000m  284.3978m 
  590.00000m  284.4204m 
  600.00000m  284.4430m 
  610.00000m  284.4656m 
  620.00000m  284.4882m 
  630.00000m  284.5107m 
  640.00000m  284.5333m 
  650.00000m  284.5559m 
  660.00000m  284.5784m 
  670.00000m  284.6010m 
  680.00000m  284.6236m 
  690.00000m  284.6461m 
  700.00000m  284.6687m 
  710.00000m  284.6912m 
  720.00000m  284.7137m 
  730.00000m  284.7363m 
  740.00000m  284.7588m 
  750.00000m  284.7813m 
  760.00000m  284.8038m 
  770.00000m  284.8264m 
  780.00000m  284.8489m 
  790.00000m  284.8714m 
  800.00000m  284.8939m 
  810.00000m  284.9164m 
  820.00000m  284.9389m 
  830.00000m  284.9613m 
  840.00000m  284.9838m 
  850.00000m  285.0063m 
  860.00000m  285.0288m 
  870.00000m  285.0513m 
  880.00000m  285.0737m 
  890.00000m  285.0962m 
  900.00000m  285.1186m 
  910.00000m  285.1411m 
  920.00000m  285.1635m 
  930.00000m  285.1860m 
  940.00000m  285.2084m 
  950.00000m  285.2309m 
  960.00000m  285.2533m 
  970.00000m  285.2757m 
  980.00000m  285.2981m 
  990.00000m  285.3206m 
    1.00000   285.3430m 
    1.01000   285.3654m 
    1.02000   285.3878m 
    1.03000   285.4102m 
    1.04000   285.4326m 
    1.05000   285.4550m 
y

          ***** job concluded
1****** HSPICE -- K-2015.06-3 linux64 (Aug  5 2015) ******                      
 ******  
 lab2 nmos

 ****** job statistics summary tnom=  25.000 temp=  25.000 ******
  
  
 ******  Machine Information  ******
 CPU:
 model name	: Intel(R) Xeon(R) Silver 4214Y CPU @ 2.20GHz
 cpu MHz	: 2194.844
  
 OS:
 Linux version 4.18.0-553.16.1.el8_10.x86_64 (mockbuild@x86-64-01.build.eng.rdu2.redhat.com) (gcc version 8.5.0 20210514 (Red Hat 8.5.0-22) (GCC)) #1 SMP Thu Aug 1 04:16:12 EDT 2024


  ******  HSPICE Threads Information  ******

  Command Line Threads Count :     1
  Available CPU Count        :     6
  Actual Threads Count       :     1


  ******  Circuit Statistics  ******
  # nodes       =       4 # elements   =       4
  # resistors   =       0 # capacitors =       0 # inductors   =       0
  # mutual_inds =       0 # vccs       =       0 # vcvs        =       0
  # cccs        =       0 # ccvs       =       0 # volt_srcs   =       3
  # curr_srcs   =       0 # diodes     =       0 # bjts        =       0
  # jfets       =       0 # mosfets    =       1 # U elements  =       0
  # T elements  =       0 # W elements =       0 # B elements  =       0
  # S elements  =       0 # P elements =       0 # va device   =       0
  # vector_srcs =       0 # N elements =       0


  ******  Runtime Statistics (seconds)  ******

  analysis           time    # points   tot. iter  conv.iter
  op point           0.00           1           0
  dc sweep           0.01         636        1278
  readin             1.05
  errchk             0.00
  setup              0.00
  output             0.00


           peak memory used        275.39 megabytes
           total cpu time            1.07 seconds
           total elapsed time        0.80 seconds
           job started at     15:07:59 11/11/2024
           job ended   at     15:08:00 11/11/2024


 lic: Release hspice token(s) 
 lic: total license checkout elapse time:        0.06(s)
