 ****** HSPICE -- K-2015.06-3 linux64 (Aug  5 2015) ******                      
  Copyright (c) 1986 - 2024 by Synopsys, Inc. All Rights Reserved.              
  This software and the associated documentation are proprietary
  to Synopsys, Inc. This software may only be used in accordance
  with the terms and conditions of a written license agreement with
  Synopsys, Inc. All other use, reproduction, or distribution of
  this software is strictly prohibited.
  Input File: lab2.sp                                                           
  Command line options: /usr/cots/synopsys/HSPICE-K-2015.06-3/hspice/linux64/hspice -i lab2.sp -o lab2.lis
 lic:  
 lic: FLEXlm: v11.2.1 
 lic: USER:   mbass01              HOSTNAME: vm-hw04 
 lic: HOSTID: 005056000004         PID:      3903808 
 lic: Using FLEXlm license file: 
 lic: 27000@vm-license1 
 lic: Checkout 1 hspice 
 lic: License/Maintenance for hspice will expire on 15-sep-2026/2024.09 
 lic: 1(in_use)/50(total) FLOATING license(s) on SERVER 27000@vm-license1 
 lic:   
 Init: read install configuration file: /usr/cots/synopsys/HSPICE-K-2015.06-3/hspice/meta.cfg
1****** HSPICE -- K-2015.06-3 linux64 (Aug  5 2015) ******                      
 ******  
 lab2 nmos

 ****** mos   model parameters tnom=  25.000 temp=  25.000 ******
 Model file: lab2.sp
 Model line:           22
 Model Name: n105  
 BSIM4 Model (Level 54)
    MOBMOD = 0
    BINUNIT = 1
    PARAMCHK = 1
    CAPMOD = 2
    DIOMOD = 1
    RDSMOD = 0
    TRNQSMOD = 0
    ACNQSMOD = 0
    RBODYMOD = 0
    RGATEMOD = 0
    PERMOD = 1
    GEOMOD = 0
    RGEOMOD = 0
    FNOIMOD = 1
    TNOIMOD = 0
    IGCMOD = 0
    IGBMOD = 0
    STIMOD = 1
    VBFWDMOD = 0
    VERSION =   4.66 
    TOXREF =  3e-09 
    TOXE =  3e-09 
    TOXP =  3e-09 
    TOXM =  3e-09 
    DTOX =      0 
    EPSROX =    3.9 
    CDSC = 0.00024 
    CDSCB =      0 
    CDSCD =      0 
    CIT =      0 
    NFACTOR =      1 
    XJ = 1.5e-07 
    VSAT =  8e+04 
    A0 =      1 
    AGS =      0 
    A1 =      0 
    A2 =      1 
    AT = 3.3e+04 
    KETA = -0.047 
    NSUB =  6e+16 
    NDEP = 1.7e+17 
    NSD =  1e+20 
    NGATE =      0 
    GAMMA1 =      0 
    GAMMA2 =      0 
    VBX =      0 
    VBM =     -3 
    XT = 1.55e-07 
    K1 =      0 
    KT1 =  -0.11 
    KT1L =      0 
    KT2 =  0.022 
    K2 =      0 
    K3 =     80 
    K3B =      0 
    LPE0 = 1.74e-07 
    LPEB =      0 
    DVTP0 =      0 
    DVTP1 =      0 
    W0 = 2.5e-06 
    DVT0 =    2.2 
    DVT1 =   0.53 
    DVT2 = -0.032 
    DVT0W =      0 
    DVT1W = 5.3e+06 
    DVT2W = -0.032 
    DROUT =   0.56 
    DSUB =   0.56 
    VTH0 =    0.7 
    EU =   1.67 
    UA =  1e-09 
    UA1 =  1e-09 
    UB =  1e-19 
    UB1 = -1e-18 
    UC = -4.65e-11 
    UC1 = -5.6e-11 
    U0 =  0.067 
    UTE =   -1.5 
    VOFF =  -0.08 
    VOFFL =      0 
    MINV =      0 
    FPROUT =      0 
    PDITS =      0 
    PDITSD =      0 
    PDITSL =      0 
    DELTA =   0.01 
    RDSW =    200 
    RDSWMIN =      0 
    RDWMIN =      0 
    RSWMIN =      0 
    RDW =    100 
    RSW =    100 
    PRWG =      1 
    PRWB =      0 
    PRT =      0 
    ETA0 =   0.08 
    ETAB =  -0.07 
    PCLM =    1.3 
    PDIBLC1 =   0.39 
    PDIBLC2 = 0.0086 
    PDIBLCB =      0 
    PSCBE1 = 4.24e+08 
    PSCBE2 =  1e-05 
    PVAG =      0 
    WR =      1 
    DWG =      0 
    DWB =      0 
    XW =      0 
    XWREF =      0 
    XL =      0 
    XLREF =      0 
    B0 =      0 
    B1 =      0 
    ALPHA0 =      0 
    ALPHA1 =      0 
    AGIDL =      0 
    BGIDL = 2.3e+09 
    CGIDL =    0.5 
    PHIN =      0 
    EGIDL =    0.8 
    AIGC = 0.0136 
    BIGC = 0.00171 
    CIGC =  0.075 
    AIGSD = 0.0136 
    BIGSD = 0.00171 
    CIGSD =  0.075 
    AIGBACC = 0.0136 
    BIGBACC = 0.00171 
    CIGBACC =  0.075 
    AIGBINV = 0.0111 
    BIGBINV = 0.000949 
    CIGBINV =  0.006 
    NIGC =      1 
    NIGBINV =      3 
    NIGBACC =      1 
    NTOX =      1 
    EIGBINV =    1.1 
    PIGCD =      1 
    POXEDGE =      1 
    XRCRG1 =     12 
    TNOIA =    1.5 
    TNOIB =    3.5 
    NTNOI =      1 
    XRCRG2 =      1 
    BETA0 =      0 
    IJTHDFWD =    0.1 
    IJTHSFWD =    0.1 
    IJTHDREV =    0.1 
    IJTHSREV =    0.1 
    XJBVD =      1 
    XJBVS =      1 
    BVD =     10 
    BVS =     10 
    VFB =     -1 
    GBMIN =  1e-12 
    RBDB =     50 
    RBPB =     50 
    RBSB =     50 
    RBPS =     50 
    RBPD =     50 
    CGSL =      0 
    CGDL =      0 
    CKAPPAS =    0.6 
    CKAPPAD =    0.6 
    CF = 1.077e-10 
    CLC =  1e-07 
    CLE =    0.6 
    DWC =      0 
    DLC =      0 
    DLCIG =      0 
    DWJ =      0 
    VFBCV =     -1 
    ACDE =      1 
    MOIN =     15 
    NOFF =      1 
    VOFFCV =      0 
    DMCG =      0 
    DMCI =      0 
    DMDG =      0 
    DMCGT =      0 
    XGW =      0 
    XGL =      0 
    RSHG =    0.1 
    NGCON =      1 
    TCJ =      0 
    TPB =      0 
    TCJSW =      0 
    TPBSW =      0 
    TCJSWG =      0 
    TPBSWG =      0 
    SK0 =      0 
    SK1 =      0 
    SK2 =      0 
    SL =  2e-06 
    SW =  2e-06 
    K =      0 
    TNOM =  298.1 
    CGSO =      0 
    CGDO =      0 
    CGBO =      0 
    XPART =      0 
    RSH =      0 
    JSS = 0.0001 
    JSWS =      0 
    JSWGS =      0 
    PBS =      1 
    MJS =    0.5 
    PBSWS =      1 
    MJSWS =   0.33 
    CJS = 0.0005 
    CJSWS =  5e-10 
    NJS =      1 
    PBSWGS =      1 
    MJSWGS =   0.33 
    CJSWGS =  5e-10 
    XTIS =      3 
    JSD = 0.0001 
    JSWD =      0 
    JSWGD =      0 
    PBD =      1 
    MJD =    0.5 
    PBSWD =      1 
    MJSWD =   0.33 
    CJD = 0.0005 
    CJSWD =  5e-10 
    NJD =      1 
    PBSWGD =      1 
    MJSWGD =   0.33 
    CJSWGD =  5e-10 
    XTID =      3 
    LMLT =      1 
    WMLT =      1 
    LINT =      0 
    LL =      0 
    LLC =      0 
    LLN =      1 
    LW =      0 
    LWC =      0 
    LWN =      1 
    LWL =      0 
    LWLC =      0 
    LMIN =      0 
    LMAX =      1 
    WINT =      0 
    WL =      0 
    WLC =      0 
    WLN =      1 
    WW =      0 
    WWC =      0 
    WWN =      1 
    WWL =      0 
    WWLC =      0 
    WMIN =      0 
    WMAX =      1 
    NOIA = 6.25e+41 
    NOIB = 3.125e+26 
    NOIC = 8.75e+09 
    EM = 4.1e+07 
    EF =      1 
    AF =      1 
    KF =      0 
    TRS =      0 
    TRD =      0 
    TEMPMOD  =      0 
    LAMBDA   =      0 
    VTL      =  2e+05 m/s
    LC       =  5e-09 
    XN       =      3 
    LLAMBDA  =      0 
    LVTL     =      0 
    LXN      =      0 
    WLAMBDA  =      0 
    WVTL     =      0 
    WXN      =      0 
    PLAMBDA  =      0 
    PVTL     =      0 
    PXN      =      0 
    RNOIA    =  0.577 
    RNOIB    = 0.5164 
    SAREF(SA0) =  1e-06 m
    SBREF(SB0) =  1e-06 m
    WLOD     =      0 m
    KU0      =      0 1/m
    KVSAT    =      0 
    KVTH0    =      0 m
    TKU0     =      0 
    LLODKU0  =      0 
    WLODKU0  =      0 
    LLODVTH  =      0 
    WLODVTH  =      0 
    LKU0     =      0 
    WKU0     =      0 
    PKU0     =      0 
    LKVTH0   =      0 
    WKVTH0   =      0 
    PKVTH0   =      0 
    STK2     =      0 
    LODK2    =      1 
    STETA0   =      0 
    LODETA0  =      1 
    LXRCRG1  =      0 
    WXRCRG1  =      0 
    PXRCRG1  =      0 
    LXRCRG2  =      0 
    WXRCRG2  =      0 
    PXRCRG2  =      0 
     *** UCB's BSIM4.4.0 new diode model is activated. ***
    *** UCB's Diode Model Parameters ***
    JTSS         =      0 
    JTSSWS       =      0 
    JTSSWGS      =      0 
    JTSD         =      0 
    JTSSWD       =      0 
    JTSSWGD      =      0 
    NJTS         =     20 
    NJTSSW       =     20 
    NJTSSWG      =     20 
    XTSS         =   0.02 
    XTSSWS       =   0.02 
    XTSSWGS      =   0.02 
    XTSD         =   0.02 
    XTSSWD       =   0.02 
    XTSSWGD      =   0.02 
    TNJTS        =      0 
    TNJTSSW      =      0 
    TNJTSSWG     =      0 
    VFBSDOFF     =      0 
    LVFBSDOFF    =      0 
    WVFBSDOFF    =      0 
    PVFBSDOFF    =      0 
    LINTNOI      =      0 
    VTSS         =     10 
    VTSD         =     10 
    VTSSWS       =     10 
    VTSSWD       =     10 
    VTSSWGS      =     10 
    VTSSWGD      =     10 
    TTDIOMOD     =      1 
     *** UCB's BSIM4.5.0 new model is activated. ***
    UD         =      0 
    UD1        =      0 
    UP         =      0 
    LP         =  1e-08 
    TVOFF      =      0 
    TVFBSDOFF  =      0 
    RBPS0      =     50 
    RBPSL      =      0 
    RBPSW      =      0 
    RBPSNF     =      0 
    RBPD0      =     50 
    RBPDL      =      0 
    RBPDW      =      0 
    RBPDNF     =      0 
    RBPBX0     =    100 
    RBPBXL     =      0 
    RBPBXW     =      0 
    RBPBXNF    =      0 
    RBPBY0     =    100 
    RBPBYL     =      0 
    RBPBYW     =      0 
    RBPBYNF    =      0 
    RBSBX0     =    100 
    RBSBY0     =    100 
    RBDBX0     =    100 
    RBDBY0     =    100 
    RBSDBXL    =      0 
    RBSDBXW    =      0 
    RBSDBXNF   =      0 
    RBSDBYL    =      0 
    RBSDBYW    =      0 
    RBSDBYNF   =      0 
    LUD        =      0 
    LUD1       =      0 
    LUP        =      0 
    LLP        =      0 
    LTVOFF     =      0 
    LTVFBSDOFF =      0 
    WUD        =      0 
    WUD1       =      0 
    WUP        =      0 
    WLP        =      0 
    WTVOFF     =      0 
    WTVFBSDOFF =      0 
    PUD        =      0 
    PUD1       =      0 
    PUP        =      0 
    PLP        =      0 
    PTVOFF     =      0 
    PTVFBSDOFF =      0 
    WEB        =      0 
    WEC        =      0 
    KVTH0WE    =      0 
    K2WE       =      0 
    KU0WE      =      0 
    SCREF      =  1e-06 
    WPEMOD     =      0 
    LKVTH0WE   =      0 
    LK2WE      =      0 
    LKU0WE     =      0 
    WKVTH0WE   =      0 
    WK2WE      =      0 
    WKU0WE     =      0 
    PKVTH0WE   =      0 
    PK2WE      =      0 
    PKU0WE     =      0 
     *** UCB's BSIM4.6.0 new model is activated. ***
    AGISL     =      0 
    BGISL     = 2.3e+09 
    CGISL     =    0.5 
    EGISL     =    0.8 
    AIGS      = 0.0136 
    BIGS      = 0.00171 
    CIGS      =  0.075 
    AIGD      = 0.0136 
    BIGD      = 0.00171 
    CIGD      =  0.075 
    NJTSD     =     20 
    NJTSSWD   =     20 
    NJTSSWGD  =     20 
    TNJTSD    =      0 
    TNJTSSWD  =      0 
    TNJTSSWGD =      0 
    DLCIGD    =      0 
    LAGISL    =      0 
    LBGISL    =      0 
    LCGISL    =      0 
    LEGISL    =      0 
    LAIGS     =      0 
    LBIGS     =      0 
    LCIGS     =      0 
    LAIGD     =      0 
    LBIGD     =      0 
    LCIGD     =      0 
    WAGISL    =      0 
    WBGISL    =      0 
    WCGISL    =      0 
    WEGISL    =      0 
    WAIGS     =      0 
    WBIGS     =      0 
    WCIGS     =      0 
    WAIGD     =      0 
    WBIGD     =      0 
    WCIGD     =      0 
    PAGISL    =      0 
    PBGISL    =      0 
    PCGISL    =      0 
    PEGISL    =      0 
    PAIGS     =      0 
    PBIGS     =      0 
    PCIGS     =      0 
    PAIGD     =      0 
    PBIGD     =      0 
    PCIGD     =      0 
     *** UCB's BSIM4.6.1 new model is activated. ***
    CVCHARGEMOD     = 0
    MTRLMOD     = 0
    EOT     = 1.5e-09 
    VDDEOT     =    1.5 
    ADOS     =      1 
    BDOS     =      1 
    PHIG     =   4.05 
    EPSRGATE     =   11.7 
    EASUB     =   4.05 
    EPSRSUB     =   11.7 
    NI0SUB     = 1.45e+10 
    BG0SUB     =   1.16 
    TBGASUB     = 0.000702 
    TBGBSUB     =   1108 
    MINVCV     =      0 
    VOFFCV1     =      0 
    LMINVCV     =      0 
    WMINVCV     =      0 
    PMINVCV     =      0 
    TEMPEOT     =  300.1 
    LEFFEOT     =      1 
    WEFFEOT     =     10 
    UCS         =   1.67 
    UCSTE       = -0.004775 
    LUCS        =      0 
    LUCSTE      =      0 
    WUCS        =      0 
    WUCSTE      =      0 
    PUCS        =      0 
    PUCSTE      =      0 
    JTWEFF      =      0 
     *** UCB's BSIM4.6.6 new model is activated. ***
    GIDLMOD     = 0
    DVTP2       =      0 
    DVTP3       =      0 
    DVTP4       =      0 
    DVTP5       =      0 
    TNFACTOR    =      0 
    TETA0       =      0 
    TVOFFCV     =      0 
    FGIDL       =      0 
    KGIDL       =      0 
    RGIDL       =      1 
    FGISL       =      0 
    KGISL       =      0 
    RGISL       =      1 
    TNOIC       =      0 
    RNOIC       =  0.395 
    LDVTP2      =      0 
    LDVTP3      =      0 
    LDVTP4      =      0 
    LDVTP5      =      0 
    LTNFACTOR   =      0 
    LTETA0      =      0 
    LTVOFFCV    =      0 
    LFGIDL      =      0 
    LKGIDL      =      0 
    LRGIDL      =      0 
    LFGISL      =      0 
    LKGISL      =      0 
    LRGISL      =      0 
    WDVTP2      =      0 
    WDVTP3      =      0 
    WDVTP4      =      0 
    WDVTP5      =      0 
    WTNFACTOR   =      0 
    WTETA0      =      0 
    WTVOFFCV    =      0 
    WFGIDL      =      0 
    WKGIDL      =      0 
    WRGIDL      =      0 
    WFGISL      =      0 
    WKGISL      =      0 
    WRGISL      =      0 
    PDVTP2      =      0 
    PDVTP3      =      0 
    PDVTP4      =      0 
    PDVTP5      =      0 
    PTNFACTOR   =      0 
    PTETA0      =      0 
    PTVOFFCV    =      0 
    PFGIDL      =      0 
    PKGIDL      =      0 
    PRGIDL      =      0 
    PFGISL      =      0 
    PKGISL      =      0 
    PRGISL      =      0 
  
      
 *****************************************************************
 ******  option summary
 ******
 runlvl  = 3         bypass  = 2         
 ******
 lab2 nmos

 ****** dc transfer curves tnom=  25.000 temp=  25.000 ******
  *** parameter 0:vgs  =     0.            ***
  
 x

 volt         current   
             m1         
    0.          0.      
   10.00000m  725.6824f 
   20.00000m    1.2720p 
   30.00000m    1.6754p 
   40.00000m    1.9756p 
   50.00000m    2.2096p 
   60.00000m    2.4053p 
   70.00000m    2.5803p 
   80.00000m    2.7442p 
   90.00000m    2.9024p 
  100.00000m    3.0576p 
  110.00000m    3.2113p 
  120.00000m    3.3644p 
  130.00000m    3.5177p 
  140.00000m    3.6712p 
  150.00000m    3.8255p 
  160.00000m    3.9805p 
  170.00000m    4.1365p 
  180.00000m    4.2935p 
  190.00000m    4.4517p 
  200.00000m    4.6111p 
  210.00000m    4.7717p 
  220.00000m    4.9336p 
  230.00000m    5.0968p 
  240.00000m    5.2614p 
  250.00000m    5.4275p 
  260.00000m    5.5949p 
  270.00000m    5.7639p 
  280.00000m    5.9343p 
  290.00000m    6.1062p 
  300.00000m    6.2797p 
  310.00000m    6.4548p 
  320.00000m    6.6314p 
  330.00000m    6.8096p 
  340.00000m    6.9894p 
  350.00000m    7.1708p 
  360.00000m    7.3539p 
  370.00000m    7.5387p 
  380.00000m    7.7251p 
  390.00000m    7.9132p 
  400.00000m    8.1031p 
  410.00000m    8.2946p 
  420.00000m    8.4879p 
  430.00000m    8.6830p 
  440.00000m    8.8798p 
  450.00000m    9.0784p 
  460.00000m    9.2787p 
  470.00000m    9.4809p 
  480.00000m    9.6849p 
  490.00000m    9.8908p 
  500.00000m   10.0985p 
  510.00000m   10.3080p 
  520.00000m   10.5194p 
  530.00000m   10.7327p 
  540.00000m   10.9479p 
  550.00000m   11.1650p 
  560.00000m   11.3841p 
  570.00000m   11.6050p 
  580.00000m   11.8280p 
  590.00000m   12.0529p 
  600.00000m   12.2797p 
  610.00000m   12.5086p 
  620.00000m   12.7395p 
  630.00000m   12.9723p 
  640.00000m   13.2073p 
  650.00000m   13.4442p 
  660.00000m   13.6832p 
  670.00000m   13.9243p 
  680.00000m   14.1675p 
  690.00000m   14.4128p 
  700.00000m   14.6602p 
  710.00000m   14.9097p 
  720.00000m   15.1614p 
  730.00000m   15.4152p 
  740.00000m   15.6712p 
  750.00000m   15.9293p 
  760.00000m   16.1897p 
  770.00000m   16.4523p 
  780.00000m   16.7171p 
  790.00000m   16.9841p 
  800.00000m   17.2534p 
  810.00000m   17.5250p 
  820.00000m   17.7988p 
  830.00000m   18.0750p 
  840.00000m   18.3535p 
  850.00000m   18.6343p 
  860.00000m   18.9174p 
  870.00000m   19.2029p 
  880.00000m   19.4908p 
  890.00000m   19.7810p 
  900.00000m   20.0737p 
  910.00000m   20.3688p 
  920.00000m   20.6663p 
  930.00000m   20.9663p 
  940.00000m   21.2688p 
  950.00000m   21.5737p 
  960.00000m   21.8811p 
  970.00000m   22.1911p 
  980.00000m   22.5036p 
  990.00000m   22.8186p 
    1.00000    23.1362p 
    1.01000    23.4564p 
    1.02000    23.7792p 
    1.03000    24.1047p 
    1.04000    24.4327p 
    1.05000    24.7634p 
y
 x

 volt         lv9       
             m1         
    0.        390.1888m 
   10.00000m  390.0614m 
   20.00000m  389.9340m 
   30.00000m  389.8066m 
   40.00000m  389.6792m 
   50.00000m  389.5518m 
   60.00000m  389.4244m 
   70.00000m  389.2970m 
   80.00000m  389.1697m 
   90.00000m  389.0423m 
  100.00000m  388.9149m 
  110.00000m  388.7875m 
  120.00000m  388.6601m 
  130.00000m  388.5327m 
  140.00000m  388.4053m 
  150.00000m  388.2779m 
  160.00000m  388.1505m 
  170.00000m  388.0231m 
  180.00000m  387.8957m 
  190.00000m  387.7683m 
  200.00000m  387.6409m 
  210.00000m  387.5135m 
  220.00000m  387.3862m 
  230.00000m  387.2588m 
  240.00000m  387.1314m 
  250.00000m  387.0040m 
  260.00000m  386.8766m 
  270.00000m  386.7492m 
  280.00000m  386.6218m 
  290.00000m  386.4944m 
  300.00000m  386.3670m 
  310.00000m  386.2396m 
  320.00000m  386.1122m 
  330.00000m  385.9848m 
  340.00000m  385.8574m 
  350.00000m  385.7300m 
  360.00000m  385.6026m 
  370.00000m  385.4753m 
  380.00000m  385.3479m 
  390.00000m  385.2205m 
  400.00000m  385.0931m 
  410.00000m  384.9657m 
  420.00000m  384.8383m 
  430.00000m  384.7109m 
  440.00000m  384.5835m 
  450.00000m  384.4561m 
  460.00000m  384.3287m 
  470.00000m  384.2013m 
  480.00000m  384.0739m 
  490.00000m  383.9465m 
  500.00000m  383.8191m 
  510.00000m  383.6918m 
  520.00000m  383.5644m 
  530.00000m  383.4370m 
  540.00000m  383.3096m 
  550.00000m  383.1822m 
  560.00000m  383.0548m 
  570.00000m  382.9274m 
  580.00000m  382.8000m 
  590.00000m  382.6726m 
  600.00000m  382.5452m 
  610.00000m  382.4178m 
  620.00000m  382.2904m 
  630.00000m  382.1630m 
  640.00000m  382.0356m 
  650.00000m  381.9082m 
  660.00000m  381.7809m 
  670.00000m  381.6535m 
  680.00000m  381.5261m 
  690.00000m  381.3987m 
  700.00000m  381.2713m 
  710.00000m  381.1439m 
  720.00000m  381.0165m 
  730.00000m  380.8891m 
  740.00000m  380.7617m 
  750.00000m  380.6343m 
  760.00000m  380.5069m 
  770.00000m  380.3795m 
  780.00000m  380.2521m 
  790.00000m  380.1247m 
  800.00000m  379.9973m 
  810.00000m  379.8700m 
  820.00000m  379.7426m 
  830.00000m  379.6152m 
  840.00000m  379.4878m 
  850.00000m  379.3604m 
  860.00000m  379.2330m 
  870.00000m  379.1056m 
  880.00000m  378.9782m 
  890.00000m  378.8508m 
  900.00000m  378.7234m 
  910.00000m  378.5960m 
  920.00000m  378.4686m 
  930.00000m  378.3412m 
  940.00000m  378.2138m 
  950.00000m  378.0865m 
  960.00000m  377.9591m 
  970.00000m  377.8317m 
  980.00000m  377.7043m 
  990.00000m  377.5769m 
    1.00000   377.4495m 
    1.01000   377.3221m 
    1.02000   377.1947m 
    1.03000   377.0673m 
    1.04000   376.9399m 
    1.05000   376.8125m 
y
 x

 volt         lv10      
             m1         
    0.         42.4892m 
   10.00000m   42.4888m 
   20.00000m   42.4884m 
   30.00000m   42.4880m 
   40.00000m   42.4877m 
   50.00000m   42.4873m 
   60.00000m   42.4869m 
   70.00000m   42.4865m 
   80.00000m   42.4861m 
   90.00000m   42.4857m 
  100.00000m   42.4853m 
  110.00000m   42.4849m 
  120.00000m   42.4845m 
  130.00000m   42.4841m 
  140.00000m   42.4837m 
  150.00000m   42.4833m 
  160.00000m   42.4830m 
  170.00000m   42.4826m 
  180.00000m   42.4822m 
  190.00000m   42.4818m 
  200.00000m   42.4814m 
  210.00000m   42.4810m 
  220.00000m   42.4806m 
  230.00000m   42.4802m 
  240.00000m   42.4798m 
  250.00000m   42.4794m 
  260.00000m   42.4790m 
  270.00000m   42.4786m 
  280.00000m   42.4783m 
  290.00000m   42.4779m 
  300.00000m   42.4775m 
  310.00000m   42.4771m 
  320.00000m   42.4767m 
  330.00000m   42.4763m 
  340.00000m   42.4759m 
  350.00000m   42.4755m 
  360.00000m   42.4751m 
  370.00000m   42.4747m 
  380.00000m   42.4743m 
  390.00000m   42.4739m 
  400.00000m   42.4736m 
  410.00000m   42.4732m 
  420.00000m   42.4728m 
  430.00000m   42.4724m 
  440.00000m   42.4720m 
  450.00000m   42.4716m 
  460.00000m   42.4712m 
  470.00000m   42.4708m 
  480.00000m   42.4704m 
  490.00000m   42.4700m 
  500.00000m   42.4696m 
  510.00000m   42.4692m 
  520.00000m   42.4688m 
  530.00000m   42.4684m 
  540.00000m   42.4681m 
  550.00000m   42.4677m 
  560.00000m   42.4673m 
  570.00000m   42.4669m 
  580.00000m   42.4665m 
  590.00000m   42.4661m 
  600.00000m   42.4657m 
  610.00000m   42.4653m 
  620.00000m   42.4649m 
  630.00000m   42.4645m 
  640.00000m   42.4641m 
  650.00000m   42.4637m 
  660.00000m   42.4633m 
  670.00000m   42.4629m 
  680.00000m   42.4626m 
  690.00000m   42.4622m 
  700.00000m   42.4618m 
  710.00000m   42.4614m 
  720.00000m   42.4610m 
  730.00000m   42.4606m 
  740.00000m   42.4602m 
  750.00000m   42.4598m 
  760.00000m   42.4594m 
  770.00000m   42.4590m 
  780.00000m   42.4586m 
  790.00000m   42.4582m 
  800.00000m   42.4578m 
  810.00000m   42.4574m 
  820.00000m   42.4570m 
  830.00000m   42.4566m 
  840.00000m   42.4563m 
  850.00000m   42.4559m 
  860.00000m   42.4555m 
  870.00000m   42.4551m 
  880.00000m   42.4547m 
  890.00000m   42.4543m 
  900.00000m   42.4539m 
  910.00000m   42.4535m 
  920.00000m   42.4531m 
  930.00000m   42.4527m 
  940.00000m   42.4523m 
  950.00000m   42.4519m 
  960.00000m   42.4515m 
  970.00000m   42.4511m 
  980.00000m   42.4507m 
  990.00000m   42.4503m 
    1.00000    42.4499m 
    1.01000    42.4495m 
    1.02000    42.4492m 
    1.03000    42.4488m 
    1.04000    42.4484m 
    1.05000    42.4480m 
y
 ******
 lab2 nmos

 ****** dc transfer curves tnom=  25.000 temp=  25.000 ******
  *** parameter 0:vgs  =   200.0000m       ***
  
 x

 volt         current   
             m1         
    0.          0.      
   10.00000m  723.9837p 
   20.00000m    1.2666n 
   30.00000m    1.6646n 
   40.00000m    1.9581n 
   50.00000m    2.1846n 
   60.00000m    2.3723n 
   70.00000m    2.5389n 
   80.00000m    2.6943n 
   90.00000m    2.8438n 
  100.00000m    2.9903n 
  110.00000m    3.1352n 
  120.00000m    3.2796n 
  130.00000m    3.4239n 
  140.00000m    3.5686n 
  150.00000m    3.7140n 
  160.00000m    3.8601n 
  170.00000m    4.0071n 
  180.00000m    4.1551n 
  190.00000m    4.3043n 
  200.00000m    4.4546n 
  210.00000m    4.6062n 
  220.00000m    4.7590n 
  230.00000m    4.9132n 
  240.00000m    5.0687n 
  250.00000m    5.2256n 
  260.00000m    5.3839n 
  270.00000m    5.5436n 
  280.00000m    5.7048n 
  290.00000m    5.8675n 
  300.00000m    6.0317n 
  310.00000m    6.1975n 
  320.00000m    6.3648n 
  330.00000m    6.5336n 
  340.00000m    6.7041n 
  350.00000m    6.8761n 
  360.00000m    7.0498n 
  370.00000m    7.2251n 
  380.00000m    7.4020n 
  390.00000m    7.5806n 
  400.00000m    7.7609n 
  410.00000m    7.9429n 
  420.00000m    8.1266n 
  430.00000m    8.3120n 
  440.00000m    8.4992n 
  450.00000m    8.6880n 
  460.00000m    8.8787n 
  470.00000m    9.0711n 
  480.00000m    9.2653n 
  490.00000m    9.4613n 
  500.00000m    9.6591n 
  510.00000m    9.8587n 
  520.00000m   10.0602n 
  530.00000m   10.2635n 
  540.00000m   10.4687n 
  550.00000m   10.6757n 
  560.00000m   10.8847n 
  570.00000m   11.0955n 
  580.00000m   11.3082n 
  590.00000m   11.5229n 
  600.00000m   11.7395n 
  610.00000m   11.9580n 
  620.00000m   12.1785n 
  630.00000m   12.4010n 
  640.00000m   12.6254n 
  650.00000m   12.8519n 
  660.00000m   13.0804n 
  670.00000m   13.3108n 
  680.00000m   13.5434n 
  690.00000m   13.7779n 
  700.00000m   14.0146n 
  710.00000m   14.2533n 
  720.00000m   14.4941n 
  730.00000m   14.7370n 
  740.00000m   14.9820n 
  750.00000m   15.2291n 
  760.00000m   15.4784n 
  770.00000m   15.7298n 
  780.00000m   15.9834n 
  790.00000m   16.2392n 
  800.00000m   16.4971n 
  810.00000m   16.7573n 
  820.00000m   17.0197n 
  830.00000m   17.2843n 
  840.00000m   17.5512n 
  850.00000m   17.8204n 
  860.00000m   18.0918n 
  870.00000m   18.3655n 
  880.00000m   18.6415n 
  890.00000m   18.9198n 
  900.00000m   19.2005n 
  910.00000m   19.4835n 
  920.00000m   19.7689n 
  930.00000m   20.0567n 
  940.00000m   20.3468n 
  950.00000m   20.6394n 
  960.00000m   20.9344n 
  970.00000m   21.2318n 
  980.00000m   21.5317n 
  990.00000m   21.8340n 
    1.00000    22.1388n 
    1.01000    22.4462n 
    1.02000    22.7560n 
    1.03000    23.0684n 
    1.04000    23.3833n 
    1.05000    23.7008n 
y
 x

 volt         lv9       
             m1         
    0.        390.1888m 
   10.00000m  390.0614m 
   20.00000m  389.9340m 
   30.00000m  389.8066m 
   40.00000m  389.6792m 
   50.00000m  389.5518m 
   60.00000m  389.4244m 
   70.00000m  389.2970m 
   80.00000m  389.1697m 
   90.00000m  389.0423m 
  100.00000m  388.9149m 
  110.00000m  388.7875m 
  120.00000m  388.6601m 
  130.00000m  388.5327m 
  140.00000m  388.4053m 
  150.00000m  388.2779m 
  160.00000m  388.1505m 
  170.00000m  388.0231m 
  180.00000m  387.8957m 
  190.00000m  387.7683m 
  200.00000m  387.6409m 
  210.00000m  387.5135m 
  220.00000m  387.3862m 
  230.00000m  387.2588m 
  240.00000m  387.1314m 
  250.00000m  387.0040m 
  260.00000m  386.8766m 
  270.00000m  386.7492m 
  280.00000m  386.6218m 
  290.00000m  386.4944m 
  300.00000m  386.3670m 
  310.00000m  386.2396m 
  320.00000m  386.1122m 
  330.00000m  385.9848m 
  340.00000m  385.8574m 
  350.00000m  385.7300m 
  360.00000m  385.6026m 
  370.00000m  385.4753m 
  380.00000m  385.3479m 
  390.00000m  385.2205m 
  400.00000m  385.0931m 
  410.00000m  384.9657m 
  420.00000m  384.8383m 
  430.00000m  384.7109m 
  440.00000m  384.5835m 
  450.00000m  384.4561m 
  460.00000m  384.3287m 
  470.00000m  384.2013m 
  480.00000m  384.0739m 
  490.00000m  383.9465m 
  500.00000m  383.8191m 
  510.00000m  383.6918m 
  520.00000m  383.5644m 
  530.00000m  383.4370m 
  540.00000m  383.3096m 
  550.00000m  383.1822m 
  560.00000m  383.0548m 
  570.00000m  382.9274m 
  580.00000m  382.8000m 
  590.00000m  382.6726m 
  600.00000m  382.5452m 
  610.00000m  382.4178m 
  620.00000m  382.2904m 
  630.00000m  382.1630m 
  640.00000m  382.0356m 
  650.00000m  381.9082m 
  660.00000m  381.7809m 
  670.00000m  381.6535m 
  680.00000m  381.5261m 
  690.00000m  381.3987m 
  700.00000m  381.2713m 
  710.00000m  381.1439m 
  720.00000m  381.0165m 
  730.00000m  380.8891m 
  740.00000m  380.7617m 
  750.00000m  380.6343m 
  760.00000m  380.5069m 
  770.00000m  380.3795m 
  780.00000m  380.2521m 
  790.00000m  380.1247m 
  800.00000m  379.9973m 
  810.00000m  379.8700m 
  820.00000m  379.7426m 
  830.00000m  379.6152m 
  840.00000m  379.4878m 
  850.00000m  379.3604m 
  860.00000m  379.2330m 
  870.00000m  379.1056m 
  880.00000m  378.9782m 
  890.00000m  378.8508m 
  900.00000m  378.7234m 
  910.00000m  378.5960m 
  920.00000m  378.4686m 
  930.00000m  378.3412m 
  940.00000m  378.2138m 
  950.00000m  378.0865m 
  960.00000m  377.9591m 
  970.00000m  377.8317m 
  980.00000m  377.7043m 
  990.00000m  377.5769m 
    1.00000   377.4495m 
    1.01000   377.3221m 
    1.02000   377.1947m 
    1.03000   377.0673m 
    1.04000   376.9399m 
    1.05000   376.8125m 
y
 x

 volt         lv10      
             m1         
    0.         42.5324m 
   10.00000m   42.5322m 
   20.00000m   42.5320m 
   30.00000m   42.5318m 
   40.00000m   42.5316m 
   50.00000m   42.5314m 
   60.00000m   42.5312m 
   70.00000m   42.5310m 
   80.00000m   42.5308m 
   90.00000m   42.5306m 
  100.00000m   42.5304m 
  110.00000m   42.5302m 
  120.00000m   42.5300m 
  130.00000m   42.5298m 
  140.00000m   42.5296m 
  150.00000m   42.5295m 
  160.00000m   42.5293m 
  170.00000m   42.5291m 
  180.00000m   42.5289m 
  190.00000m   42.5287m 
  200.00000m   42.5285m 
  210.00000m   42.5283m 
  220.00000m   42.5281m 
  230.00000m   42.5279m 
  240.00000m   42.5278m 
  250.00000m   42.5276m 
  260.00000m   42.5274m 
  270.00000m   42.5272m 
  280.00000m   42.5270m 
  290.00000m   42.5268m 
  300.00000m   42.5267m 
  310.00000m   42.5265m 
  320.00000m   42.5263m 
  330.00000m   42.5261m 
  340.00000m   42.5259m 
  350.00000m   42.5258m 
  360.00000m   42.5256m 
  370.00000m   42.5254m 
  380.00000m   42.5252m 
  390.00000m   42.5251m 
  400.00000m   42.5249m 
  410.00000m   42.5247m 
  420.00000m   42.5246m 
  430.00000m   42.5244m 
  440.00000m   42.5242m 
  450.00000m   42.5241m 
  460.00000m   42.5239m 
  470.00000m   42.5237m 
  480.00000m   42.5236m 
  490.00000m   42.5234m 
  500.00000m   42.5232m 
  510.00000m   42.5231m 
  520.00000m   42.5229m 
  530.00000m   42.5228m 
  540.00000m   42.5226m 
  550.00000m   42.5224m 
  560.00000m   42.5223m 
  570.00000m   42.5221m 
  580.00000m   42.5220m 
  590.00000m   42.5218m 
  600.00000m   42.5217m 
  610.00000m   42.5215m 
  620.00000m   42.5214m 
  630.00000m   42.5212m 
  640.00000m   42.5211m 
  650.00000m   42.5209m 
  660.00000m   42.5208m 
  670.00000m   42.5206m 
  680.00000m   42.5205m 
  690.00000m   42.5203m 
  700.00000m   42.5202m 
  710.00000m   42.5200m 
  720.00000m   42.5199m 
  730.00000m   42.5198m 
  740.00000m   42.5196m 
  750.00000m   42.5195m 
  760.00000m   42.5193m 
  770.00000m   42.5192m 
  780.00000m   42.5191m 
  790.00000m   42.5189m 
  800.00000m   42.5188m 
  810.00000m   42.5187m 
  820.00000m   42.5186m 
  830.00000m   42.5184m 
  840.00000m   42.5183m 
  850.00000m   42.5182m 
  860.00000m   42.5180m 
  870.00000m   42.5179m 
  880.00000m   42.5178m 
  890.00000m   42.5177m 
  900.00000m   42.5175m 
  910.00000m   42.5174m 
  920.00000m   42.5173m 
  930.00000m   42.5172m 
  940.00000m   42.5171m 
  950.00000m   42.5170m 
  960.00000m   42.5168m 
  970.00000m   42.5167m 
  980.00000m   42.5166m 
  990.00000m   42.5165m 
    1.00000    42.5164m 
    1.01000    42.5163m 
    1.02000    42.5162m 
    1.03000    42.5161m 
    1.04000    42.5160m 
    1.05000    42.5159m 
y
 ******
 lab2 nmos

 ****** dc transfer curves tnom=  25.000 temp=  25.000 ******
  *** parameter 0:vgs  =   400.0000m       ***
  
 x

 volt         current   
             m1         
    0.          0.      
   10.00000m  282.7119n 
   20.00000m  511.0808n 
   30.00000m  692.4160n 
   40.00000m  834.7530n 
   50.00000m  946.7760n 
   60.00000m    1.0371u 
   70.00000m    1.1130u 
   80.00000m    1.1799u 
   90.00000m    1.2414u 
  100.00000m    1.2996u 
  110.00000m    1.3557u 
  120.00000m    1.4104u 
  130.00000m    1.4643u 
  140.00000m    1.5175u 
  150.00000m    1.5703u 
  160.00000m    1.6229u 
  170.00000m    1.6752u 
  180.00000m    1.7274u 
  190.00000m    1.7796u 
  200.00000m    1.8317u 
  210.00000m    1.8839u 
  220.00000m    1.9361u 
  230.00000m    1.9883u 
  240.00000m    2.0407u 
  250.00000m    2.0932u 
  260.00000m    2.1458u 
  270.00000m    2.1986u 
  280.00000m    2.2515u 
  290.00000m    2.3046u 
  300.00000m    2.3578u 
  310.00000m    2.4113u 
  320.00000m    2.4650u 
  330.00000m    2.5188u 
  340.00000m    2.5729u 
  350.00000m    2.6272u 
  360.00000m    2.6817u 
  370.00000m    2.7365u 
  380.00000m    2.7915u 
  390.00000m    2.8467u 
  400.00000m    2.9022u 
  410.00000m    2.9580u 
  420.00000m    3.0139u 
  430.00000m    3.0702u 
  440.00000m    3.1267u 
  450.00000m    3.1834u 
  460.00000m    3.2405u 
  470.00000m    3.2978u 
  480.00000m    3.3553u 
  490.00000m    3.4132u 
  500.00000m    3.4713u 
  510.00000m    3.5297u 
  520.00000m    3.5884u 
  530.00000m    3.6473u 
  540.00000m    3.7066u 
  550.00000m    3.7661u 
  560.00000m    3.8259u 
  570.00000m    3.8860u 
  580.00000m    3.9464u 
  590.00000m    4.0071u 
  600.00000m    4.0680u 
  610.00000m    4.1293u 
  620.00000m    4.1908u 
  630.00000m    4.2527u 
  640.00000m    4.3148u 
  650.00000m    4.3773u 
  660.00000m    4.4400u 
  670.00000m    4.5031u 
  680.00000m    4.5664u 
  690.00000m    4.6301u 
  700.00000m    4.6941u 
  710.00000m    4.7583u 
  720.00000m    4.8229u 
  730.00000m    4.8877u 
  740.00000m    4.9529u 
  750.00000m    5.0184u 
  760.00000m    5.0842u 
  770.00000m    5.1503u 
  780.00000m    5.2167u 
  790.00000m    5.2834u 
  800.00000m    5.3505u 
  810.00000m    5.4178u 
  820.00000m    5.4855u 
  830.00000m    5.5534u 
  840.00000m    5.6217u 
  850.00000m    5.6903u 
  860.00000m    5.7592u 
  870.00000m    5.8285u 
  880.00000m    5.8980u 
  890.00000m    5.9679u 
  900.00000m    6.0381u 
  910.00000m    6.1086u 
  920.00000m    6.1794u 
  930.00000m    6.2505u 
  940.00000m    6.3220u 
  950.00000m    6.3938u 
  960.00000m    6.4659u 
  970.00000m    6.5383u 
  980.00000m    6.6110u 
  990.00000m    6.6841u 
    1.00000     6.7575u 
    1.01000     6.8312u 
    1.02000     6.9053u 
    1.03000     6.9796u 
    1.04000     7.0543u 
    1.05000     7.1294u 
y
 x

 volt         lv9       
             m1         
    0.        390.1888m 
   10.00000m  390.0614m 
   20.00000m  389.9340m 
   30.00000m  389.8066m 
   40.00000m  389.6792m 
   50.00000m  389.5518m 
   60.00000m  389.4244m 
   70.00000m  389.2970m 
   80.00000m  389.1697m 
   90.00000m  389.0423m 
  100.00000m  388.9149m 
  110.00000m  388.7875m 
  120.00000m  388.6601m 
  130.00000m  388.5327m 
  140.00000m  388.4053m 
  150.00000m  388.2779m 
  160.00000m  388.1505m 
  170.00000m  388.0231m 
  180.00000m  387.8957m 
  190.00000m  387.7683m 
  200.00000m  387.6409m 
  210.00000m  387.5135m 
  220.00000m  387.3862m 
  230.00000m  387.2588m 
  240.00000m  387.1314m 
  250.00000m  387.0040m 
  260.00000m  386.8766m 
  270.00000m  386.7492m 
  280.00000m  386.6218m 
  290.00000m  386.4944m 
  300.00000m  386.3670m 
  310.00000m  386.2396m 
  320.00000m  386.1122m 
  330.00000m  385.9848m 
  340.00000m  385.8574m 
  350.00000m  385.7300m 
  360.00000m  385.6026m 
  370.00000m  385.4753m 
  380.00000m  385.3479m 
  390.00000m  385.2205m 
  400.00000m  385.0931m 
  410.00000m  384.9657m 
  420.00000m  384.8383m 
  430.00000m  384.7109m 
  440.00000m  384.5835m 
  450.00000m  384.4561m 
  460.00000m  384.3287m 
  470.00000m  384.2013m 
  480.00000m  384.0739m 
  490.00000m  383.9465m 
  500.00000m  383.8191m 
  510.00000m  383.6918m 
  520.00000m  383.5644m 
  530.00000m  383.4370m 
  540.00000m  383.3096m 
  550.00000m  383.1822m 
  560.00000m  383.0548m 
  570.00000m  382.9274m 
  580.00000m  382.8000m 
  590.00000m  382.6726m 
  600.00000m  382.5452m 
  610.00000m  382.4178m 
  620.00000m  382.2904m 
  630.00000m  382.1630m 
  640.00000m  382.0356m 
  650.00000m  381.9082m 
  660.00000m  381.7809m 
  670.00000m  381.6535m 
  680.00000m  381.5261m 
  690.00000m  381.3987m 
  700.00000m  381.2713m 
  710.00000m  381.1439m 
  720.00000m  381.0165m 
  730.00000m  380.8891m 
  740.00000m  380.7617m 
  750.00000m  380.6343m 
  760.00000m  380.5069m 
  770.00000m  380.3795m 
  780.00000m  380.2521m 
  790.00000m  380.1247m 
  800.00000m  379.9973m 
  810.00000m  379.8700m 
  820.00000m  379.7426m 
  830.00000m  379.6152m 
  840.00000m  379.4878m 
  850.00000m  379.3604m 
  860.00000m  379.2330m 
  870.00000m  379.1056m 
  880.00000m  378.9782m 
  890.00000m  378.8508m 
  900.00000m  378.7234m 
  910.00000m  378.5960m 
  920.00000m  378.4686m 
  930.00000m  378.3412m 
  940.00000m  378.2138m 
  950.00000m  378.0865m 
  960.00000m  377.9591m 
  970.00000m  377.8317m 
  980.00000m  377.7043m 
  990.00000m  377.5769m 
    1.00000   377.4495m 
    1.01000   377.3221m 
    1.02000   377.1947m 
    1.03000   377.0673m 
    1.04000   376.9399m 
    1.05000   376.8125m 
y
 x

 volt         lv10      
             m1         
    0.         57.7200m 
   10.00000m   57.7579m 
   20.00000m   57.7959m 
   30.00000m   57.8339m 
   40.00000m   57.8720m 
   50.00000m   57.9102m 
   60.00000m   57.9484m 
   70.00000m   57.9867m 
   80.00000m   58.0251m 
   90.00000m   58.0635m 
  100.00000m   58.1020m 
  110.00000m   58.1405m 
  120.00000m   58.1791m 
  130.00000m   58.2178m 
  140.00000m   58.2565m 
  150.00000m   58.2953m 
  160.00000m   58.3341m 
  170.00000m   58.3731m 
  180.00000m   58.4120m 
  190.00000m   58.4511m 
  200.00000m   58.4901m 
  210.00000m   58.5293m 
  220.00000m   58.5685m 
  230.00000m   58.6078m 
  240.00000m   58.6471m 
  250.00000m   58.6865m 
  260.00000m   58.7260m 
  270.00000m   58.7655m 
  280.00000m   58.8051m 
  290.00000m   58.8447m 
  300.00000m   58.8844m 
  310.00000m   58.9242m 
  320.00000m   58.9640m 
  330.00000m   59.0039m 
  340.00000m   59.0439m 
  350.00000m   59.0839m 
  360.00000m   59.1240m 
  370.00000m   59.1641m 
  380.00000m   59.2043m 
  390.00000m   59.2445m 
  400.00000m   59.2848m 
  410.00000m   59.3252m 
  420.00000m   59.3657m 
  430.00000m   59.4062m 
  440.00000m   59.4467m 
  450.00000m   59.4873m 
  460.00000m   59.5280m 
  470.00000m   59.5687m 
  480.00000m   59.6095m 
  490.00000m   59.6504m 
  500.00000m   59.6913m 
  510.00000m   59.7323m 
  520.00000m   59.7733m 
  530.00000m   59.8144m 
  540.00000m   59.8556m 
  550.00000m   59.8968m 
  560.00000m   59.9381m 
  570.00000m   59.9794m 
  580.00000m   60.0208m 
  590.00000m   60.0623m 
  600.00000m   60.1038m 
  610.00000m   60.1454m 
  620.00000m   60.1870m 
  630.00000m   60.2287m 
  640.00000m   60.2705m 
  650.00000m   60.3123m 
  660.00000m   60.3542m 
  670.00000m   60.3961m 
  680.00000m   60.4381m 
  690.00000m   60.4802m 
  700.00000m   60.5223m 
  710.00000m   60.5645m 
  720.00000m   60.6067m 
  730.00000m   60.6490m 
  740.00000m   60.6914m 
  750.00000m   60.7338m 
  760.00000m   60.7762m 
  770.00000m   60.8188m 
  780.00000m   60.8614m 
  790.00000m   60.9040m 
  800.00000m   60.9467m 
  810.00000m   60.9895m 
  820.00000m   61.0323m 
  830.00000m   61.0752m 
  840.00000m   61.1181m 
  850.00000m   61.1611m 
  860.00000m   61.2042m 
  870.00000m   61.2473m 
  880.00000m   61.2905m 
  890.00000m   61.3337m 
  900.00000m   61.3770m 
  910.00000m   61.4204m 
  920.00000m   61.4638m 
  930.00000m   61.5073m 
  940.00000m   61.5508m 
  950.00000m   61.5944m 
  960.00000m   61.6380m 
  970.00000m   61.6817m 
  980.00000m   61.7255m 
  990.00000m   61.7693m 
    1.00000    61.8132m 
    1.01000    61.8571m 
    1.02000    61.9011m 
    1.03000    61.9452m 
    1.04000    61.9893m 
    1.05000    62.0334m 
y
 ******
 lab2 nmos

 ****** dc transfer curves tnom=  25.000 temp=  25.000 ******
  *** parameter 0:vgs  =   600.0000m       ***
  
 x

 volt         current   
             m1         
    0.          0.      
   10.00000m    2.5070u 
   20.00000m    4.8064u 
   30.00000m    6.9121u 
   40.00000m    8.8373u 
   50.00000m   10.5940u 
   60.00000m   12.1937u 
   70.00000m   13.6477u 
   80.00000m   14.9666u 
   90.00000m   16.1612u 
  100.00000m   17.2422u 
  110.00000m   18.2207u 
  120.00000m   19.1080u 
  130.00000m   19.9158u 
  140.00000m   20.6555u 
  150.00000m   21.3379u 
  160.00000m   21.9730u 
  170.00000m   22.5691u 
  180.00000m   23.1333u 
  190.00000m   23.6709u 
  200.00000m   24.1863u 
  210.00000m   24.6828u 
  220.00000m   25.1628u 
  230.00000m   25.6285u 
  240.00000m   26.0816u 
  250.00000m   26.5233u 
  260.00000m   26.9547u 
  270.00000m   27.3769u 
  280.00000m   27.7907u 
  290.00000m   28.1967u 
  300.00000m   28.5957u 
  310.00000m   28.9881u 
  320.00000m   29.3744u 
  330.00000m   29.7551u 
  340.00000m   30.1306u 
  350.00000m   30.5013u 
  360.00000m   30.8674u 
  370.00000m   31.2293u 
  380.00000m   31.5872u 
  390.00000m   31.9414u 
  400.00000m   32.2921u 
  410.00000m   32.6395u 
  420.00000m   32.9838u 
  430.00000m   33.3252u 
  440.00000m   33.6639u 
  450.00000m   34.0000u 
  460.00000m   34.3336u 
  470.00000m   34.6648u 
  480.00000m   34.9939u 
  490.00000m   35.3209u 
  500.00000m   35.6459u 
  510.00000m   35.9690u 
  520.00000m   36.2903u 
  530.00000m   36.6100u 
  540.00000m   36.9280u 
  550.00000m   37.2444u 
  560.00000m   37.5594u 
  570.00000m   37.8731u 
  580.00000m   38.1853u 
  590.00000m   38.4963u 
  600.00000m   38.8061u 
  610.00000m   39.1147u 
  620.00000m   39.4223u 
  630.00000m   39.7287u 
  640.00000m   40.0342u 
  650.00000m   40.3387u 
  660.00000m   40.6422u 
  670.00000m   40.9449u 
  680.00000m   41.2468u 
  690.00000m   41.5478u 
  700.00000m   41.8480u 
  710.00000m   42.1475u 
  720.00000m   42.4463u 
  730.00000m   42.7444u 
  740.00000m   43.0419u 
  750.00000m   43.3387u 
  760.00000m   43.6349u 
  770.00000m   43.9306u 
  780.00000m   44.2257u 
  790.00000m   44.5203u 
  800.00000m   44.8143u 
  810.00000m   45.1079u 
  820.00000m   45.4010u 
  830.00000m   45.6937u 
  840.00000m   45.9860u 
  850.00000m   46.2778u 
  860.00000m   46.5693u 
  870.00000m   46.8603u 
  880.00000m   47.1510u 
  890.00000m   47.4414u 
  900.00000m   47.7314u 
  910.00000m   48.0212u 
  920.00000m   48.3106u 
  930.00000m   48.5997u 
  940.00000m   48.8886u 
  950.00000m   49.1771u 
  960.00000m   49.4655u 
  970.00000m   49.7536u 
  980.00000m   50.0415u 
  990.00000m   50.3291u 
    1.00000    50.6165u 
    1.01000    50.9038u 
    1.02000    51.1908u 
    1.03000    51.4777u 
    1.04000    51.7644u 
    1.05000    52.0510u 
y
 x

 volt         lv9       
             m1         
    0.        390.1888m 
   10.00000m  390.0614m 
   20.00000m  389.9340m 
   30.00000m  389.8066m 
   40.00000m  389.6792m 
   50.00000m  389.5518m 
   60.00000m  389.4244m 
   70.00000m  389.2970m 
   80.00000m  389.1697m 
   90.00000m  389.0423m 
  100.00000m  388.9149m 
  110.00000m  388.7875m 
  120.00000m  388.6601m 
  130.00000m  388.5327m 
  140.00000m  388.4053m 
  150.00000m  388.2779m 
  160.00000m  388.1505m 
  170.00000m  388.0231m 
  180.00000m  387.8957m 
  190.00000m  387.7683m 
  200.00000m  387.6409m 
  210.00000m  387.5135m 
  220.00000m  387.3862m 
  230.00000m  387.2588m 
  240.00000m  387.1314m 
  250.00000m  387.0040m 
  260.00000m  386.8766m 
  270.00000m  386.7492m 
  280.00000m  386.6218m 
  290.00000m  386.4944m 
  300.00000m  386.3670m 
  310.00000m  386.2396m 
  320.00000m  386.1122m 
  330.00000m  385.9848m 
  340.00000m  385.8574m 
  350.00000m  385.7300m 
  360.00000m  385.6026m 
  370.00000m  385.4753m 
  380.00000m  385.3479m 
  390.00000m  385.2205m 
  400.00000m  385.0931m 
  410.00000m  384.9657m 
  420.00000m  384.8383m 
  430.00000m  384.7109m 
  440.00000m  384.5835m 
  450.00000m  384.4561m 
  460.00000m  384.3287m 
  470.00000m  384.2013m 
  480.00000m  384.0739m 
  490.00000m  383.9465m 
  500.00000m  383.8191m 
  510.00000m  383.6918m 
  520.00000m  383.5644m 
  530.00000m  383.4370m 
  540.00000m  383.3096m 
  550.00000m  383.1822m 
  560.00000m  383.0548m 
  570.00000m  382.9274m 
  580.00000m  382.8000m 
  590.00000m  382.6726m 
  600.00000m  382.5452m 
  610.00000m  382.4178m 
  620.00000m  382.2904m 
  630.00000m  382.1630m 
  640.00000m  382.0356m 
  650.00000m  381.9082m 
  660.00000m  381.7809m 
  670.00000m  381.6535m 
  680.00000m  381.5261m 
  690.00000m  381.3987m 
  700.00000m  381.2713m 
  710.00000m  381.1439m 
  720.00000m  381.0165m 
  730.00000m  380.8891m 
  740.00000m  380.7617m 
  750.00000m  380.6343m 
  760.00000m  380.5069m 
  770.00000m  380.3795m 
  780.00000m  380.2521m 
  790.00000m  380.1247m 
  800.00000m  379.9973m 
  810.00000m  379.8700m 
  820.00000m  379.7426m 
  830.00000m  379.6152m 
  840.00000m  379.4878m 
  850.00000m  379.3604m 
  860.00000m  379.2330m 
  870.00000m  379.1056m 
  880.00000m  378.9782m 
  890.00000m  378.8508m 
  900.00000m  378.7234m 
  910.00000m  378.5960m 
  920.00000m  378.4686m 
  930.00000m  378.3412m 
  940.00000m  378.2138m 
  950.00000m  378.0865m 
  960.00000m  377.9591m 
  970.00000m  377.8317m 
  980.00000m  377.7043m 
  990.00000m  377.5769m 
    1.00000   377.4495m 
    1.01000   377.3221m 
    1.02000   377.1947m 
    1.03000   377.0673m 
    1.04000   376.9399m 
    1.05000   376.8125m 
y
 x

 volt         lv10      
             m1         
    0.        148.1779m 
   10.00000m  148.2275m 
   20.00000m  148.2770m 
   30.00000m  148.3266m 
   40.00000m  148.3761m 
   50.00000m  148.4256m 
   60.00000m  148.4750m 
   70.00000m  148.5245m 
   80.00000m  148.5739m 
   90.00000m  148.6233m 
  100.00000m  148.6727m 
  110.00000m  148.7221m 
  120.00000m  148.7714m 
  130.00000m  148.8208m 
  140.00000m  148.8701m 
  150.00000m  148.9194m 
  160.00000m  148.9686m 
  170.00000m  149.0179m 
  180.00000m  149.0671m 
  190.00000m  149.1164m 
  200.00000m  149.1656m 
  210.00000m  149.2147m 
  220.00000m  149.2639m 
  230.00000m  149.3130m 
  240.00000m  149.3622m 
  250.00000m  149.4113m 
  260.00000m  149.4604m 
  270.00000m  149.5094m 
  280.00000m  149.5585m 
  290.00000m  149.6075m 
  300.00000m  149.6565m 
  310.00000m  149.7055m 
  320.00000m  149.7545m 
  330.00000m  149.8035m 
  340.00000m  149.8524m 
  350.00000m  149.9013m 
  360.00000m  149.9502m 
  370.00000m  149.9991m 
  380.00000m  150.0480m 
  390.00000m  150.0968m 
  400.00000m  150.1456m 
  410.00000m  150.1944m 
  420.00000m  150.2432m 
  430.00000m  150.2920m 
  440.00000m  150.3408m 
  450.00000m  150.3895m 
  460.00000m  150.4382m 
  470.00000m  150.4869m 
  480.00000m  150.5356m 
  490.00000m  150.5842m 
  500.00000m  150.6329m 
  510.00000m  150.6815m 
  520.00000m  150.7301m 
  530.00000m  150.7787m 
  540.00000m  150.8273m 
  550.00000m  150.8758m 
  560.00000m  150.9243m 
  570.00000m  150.9728m 
  580.00000m  151.0213m 
  590.00000m  151.0698m 
  600.00000m  151.1183m 
  610.00000m  151.1667m 
  620.00000m  151.2151m 
  630.00000m  151.2635m 
  640.00000m  151.3119m 
  650.00000m  151.3603m 
  660.00000m  151.4086m 
  670.00000m  151.4569m 
  680.00000m  151.5052m 
  690.00000m  151.5535m 
  700.00000m  151.6018m 
  710.00000m  151.6501m 
  720.00000m  151.6983m 
  730.00000m  151.7465m 
  740.00000m  151.7947m 
  750.00000m  151.8429m 
  760.00000m  151.8911m 
  770.00000m  151.9392m 
  780.00000m  151.9873m 
  790.00000m  152.0354m 
  800.00000m  152.0835m 
  810.00000m  152.1316m 
  820.00000m  152.1796m 
  830.00000m  152.2277m 
  840.00000m  152.2757m 
  850.00000m  152.3237m 
  860.00000m  152.3717m 
  870.00000m  152.4196m 
  880.00000m  152.4676m 
  890.00000m  152.5155m 
  900.00000m  152.5634m 
  910.00000m  152.6113m 
  920.00000m  152.6592m 
  930.00000m  152.7070m 
  940.00000m  152.7549m 
  950.00000m  152.8027m 
  960.00000m  152.8505m 
  970.00000m  152.8982m 
  980.00000m  152.9460m 
  990.00000m  152.9938m 
    1.00000   153.0415m 
    1.01000   153.0892m 
    1.02000   153.1369m 
    1.03000   153.1845m 
    1.04000   153.2322m 
    1.05000   153.2798m 
y
 ******
 lab2 nmos

 ****** dc transfer curves tnom=  25.000 temp=  25.000 ******
  *** parameter 0:vgs  =   800.0000m       ***
  
 x

 volt         current   
             m1         
    0.          0.      
   10.00000m    4.4870u 
   20.00000m    8.7043u 
   30.00000m   12.6675u 
   40.00000m   16.3910u 
   50.00000m   19.8880u 
   60.00000m   23.1713u 
   70.00000m   26.2524u 
   80.00000m   29.1423u 
   90.00000m   31.8516u 
  100.00000m   34.3901u 
  110.00000m   36.7672u 
  120.00000m   38.9919u 
  130.00000m   41.0733u 
  140.00000m   43.0197u 
  150.00000m   44.8399u 
  160.00000m   46.5424u 
  170.00000m   48.1358u 
  180.00000m   49.6287u 
  190.00000m   51.0298u 
  200.00000m   52.3479u 
  210.00000m   53.5913u 
  220.00000m   54.7680u 
  230.00000m   55.8853u 
  240.00000m   56.9499u 
  250.00000m   57.9676u 
  260.00000m   58.9434u 
  270.00000m   59.8817u 
  280.00000m   60.7861u 
  290.00000m   61.6597u 
  300.00000m   62.5055u 
  310.00000m   63.3256u 
  320.00000m   64.1223u 
  330.00000m   64.8974u 
  340.00000m   65.6526u 
  350.00000m   66.3892u 
  360.00000m   67.1087u 
  370.00000m   67.8121u 
  380.00000m   68.5007u 
  390.00000m   69.1753u 
  400.00000m   69.8368u 
  410.00000m   70.4861u 
  420.00000m   71.1239u 
  430.00000m   71.7509u 
  440.00000m   72.3676u 
  450.00000m   72.9747u 
  460.00000m   73.5727u 
  470.00000m   74.1621u 
  480.00000m   74.7433u 
  490.00000m   75.3168u 
  500.00000m   75.8829u 
  510.00000m   76.4420u 
  520.00000m   76.9944u 
  530.00000m   77.5406u 
  540.00000m   78.0806u 
  550.00000m   78.6149u 
  560.00000m   79.1437u 
  570.00000m   79.6672u 
  580.00000m   80.1857u 
  590.00000m   80.6994u 
  600.00000m   81.2084u 
  610.00000m   81.7130u 
  620.00000m   82.2133u 
  630.00000m   82.7096u 
  640.00000m   83.2019u 
  650.00000m   83.6905u 
  660.00000m   84.1754u 
  670.00000m   84.6568u 
  680.00000m   85.1349u 
  690.00000m   85.6097u 
  700.00000m   86.0814u 
  710.00000m   86.5500u 
  720.00000m   87.0158u 
  730.00000m   87.4788u 
  740.00000m   87.9390u 
  750.00000m   88.3966u 
  760.00000m   88.8517u 
  770.00000m   89.3043u 
  780.00000m   89.7546u 
  790.00000m   90.2025u 
  800.00000m   90.6482u 
  810.00000m   91.0918u 
  820.00000m   91.5333u 
  830.00000m   91.9728u 
  840.00000m   92.4103u 
  850.00000m   92.8458u 
  860.00000m   93.2796u 
  870.00000m   93.7115u 
  880.00000m   94.1418u 
  890.00000m   94.5703u 
  900.00000m   94.9971u 
  910.00000m   95.4224u 
  920.00000m   95.8461u 
  930.00000m   96.2684u 
  940.00000m   96.6891u 
  950.00000m   97.1084u 
  960.00000m   97.5264u 
  970.00000m   97.9429u 
  980.00000m   98.3582u 
  990.00000m   98.7722u 
    1.00000    99.1849u 
    1.01000    99.5964u 
    1.02000   100.0068u 
    1.03000   100.4160u 
    1.04000   100.8240u 
    1.05000   101.2310u 
y
 x

 volt         lv9       
             m1         
    0.        390.1888m 
   10.00000m  390.0614m 
   20.00000m  389.9340m 
   30.00000m  389.8066m 
   40.00000m  389.6792m 
   50.00000m  389.5518m 
   60.00000m  389.4244m 
   70.00000m  389.2970m 
   80.00000m  389.1697m 
   90.00000m  389.0423m 
  100.00000m  388.9149m 
  110.00000m  388.7875m 
  120.00000m  388.6601m 
  130.00000m  388.5327m 
  140.00000m  388.4053m 
  150.00000m  388.2779m 
  160.00000m  388.1505m 
  170.00000m  388.0231m 
  180.00000m  387.8957m 
  190.00000m  387.7683m 
  200.00000m  387.6409m 
  210.00000m  387.5135m 
  220.00000m  387.3862m 
  230.00000m  387.2588m 
  240.00000m  387.1314m 
  250.00000m  387.0040m 
  260.00000m  386.8766m 
  270.00000m  386.7492m 
  280.00000m  386.6218m 
  290.00000m  386.4944m 
  300.00000m  386.3670m 
  310.00000m  386.2396m 
  320.00000m  386.1122m 
  330.00000m  385.9848m 
  340.00000m  385.8574m 
  350.00000m  385.7300m 
  360.00000m  385.6026m 
  370.00000m  385.4753m 
  380.00000m  385.3479m 
  390.00000m  385.2205m 
  400.00000m  385.0931m 
  410.00000m  384.9657m 
  420.00000m  384.8383m 
  430.00000m  384.7109m 
  440.00000m  384.5835m 
  450.00000m  384.4561m 
  460.00000m  384.3287m 
  470.00000m  384.2013m 
  480.00000m  384.0739m 
  490.00000m  383.9465m 
  500.00000m  383.8191m 
  510.00000m  383.6918m 
  520.00000m  383.5644m 
  530.00000m  383.4370m 
  540.00000m  383.3096m 
  550.00000m  383.1822m 
  560.00000m  383.0548m 
  570.00000m  382.9274m 
  580.00000m  382.8000m 
  590.00000m  382.6726m 
  600.00000m  382.5452m 
  610.00000m  382.4178m 
  620.00000m  382.2904m 
  630.00000m  382.1630m 
  640.00000m  382.0356m 
  650.00000m  381.9082m 
  660.00000m  381.7809m 
  670.00000m  381.6535m 
  680.00000m  381.5261m 
  690.00000m  381.3987m 
  700.00000m  381.2713m 
  710.00000m  381.1439m 
  720.00000m  381.0165m 
  730.00000m  380.8891m 
  740.00000m  380.7617m 
  750.00000m  380.6343m 
  760.00000m  380.5069m 
  770.00000m  380.3795m 
  780.00000m  380.2521m 
  790.00000m  380.1247m 
  800.00000m  379.9973m 
  810.00000m  379.8700m 
  820.00000m  379.7426m 
  830.00000m  379.6152m 
  840.00000m  379.4878m 
  850.00000m  379.3604m 
  860.00000m  379.2330m 
  870.00000m  379.1056m 
  880.00000m  378.9782m 
  890.00000m  378.8508m 
  900.00000m  378.7234m 
  910.00000m  378.5960m 
  920.00000m  378.4686m 
  930.00000m  378.3412m 
  940.00000m  378.2138m 
  950.00000m  378.0865m 
  960.00000m  377.9591m 
  970.00000m  377.8317m 
  980.00000m  377.7043m 
  990.00000m  377.5769m 
    1.00000   377.4495m 
    1.01000   377.3221m 
    1.02000   377.1947m 
    1.03000   377.0673m 
    1.04000   376.9399m 
    1.05000   376.8125m 
y
 x

 volt         lv10      
             m1         
    0.        217.2901m 
   10.00000m  217.3225m 
   20.00000m  217.3548m 
   30.00000m  217.3872m 
   40.00000m  217.4195m 
   50.00000m  217.4518m 
   60.00000m  217.4841m 
   70.00000m  217.5164m 
   80.00000m  217.5487m 
   90.00000m  217.5810m 
  100.00000m  217.6133m 
  110.00000m  217.6455m 
  120.00000m  217.6778m 
  130.00000m  217.7100m 
  140.00000m  217.7423m 
  150.00000m  217.7745m 
  160.00000m  217.8068m 
  170.00000m  217.8390m 
  180.00000m  217.8712m 
  190.00000m  217.9034m 
  200.00000m  217.9356m 
  210.00000m  217.9678m 
  220.00000m  218.0000m 
  230.00000m  218.0321m 
  240.00000m  218.0643m 
  250.00000m  218.0964m 
  260.00000m  218.1286m 
  270.00000m  218.1607m 
  280.00000m  218.1929m 
  290.00000m  218.2250m 
  300.00000m  218.2571m 
  310.00000m  218.2892m 
  320.00000m  218.3213m 
  330.00000m  218.3534m 
  340.00000m  218.3855m 
  350.00000m  218.4176m 
  360.00000m  218.4496m 
  370.00000m  218.4817m 
  380.00000m  218.5138m 
  390.00000m  218.5458m 
  400.00000m  218.5778m 
  410.00000m  218.6099m 
  420.00000m  218.6419m 
  430.00000m  218.6739m 
  440.00000m  218.7059m 
  450.00000m  218.7379m 
  460.00000m  218.7699m 
  470.00000m  218.8019m 
  480.00000m  218.8339m 
  490.00000m  218.8658m 
  500.00000m  218.8978m 
  510.00000m  218.9297m 
  520.00000m  218.9617m 
  530.00000m  218.9936m 
  540.00000m  219.0255m 
  550.00000m  219.0575m 
  560.00000m  219.0894m 
  570.00000m  219.1213m 
  580.00000m  219.1532m 
  590.00000m  219.1850m 
  600.00000m  219.2169m 
  610.00000m  219.2488m 
  620.00000m  219.2807m 
  630.00000m  219.3125m 
  640.00000m  219.3444m 
  650.00000m  219.3762m 
  660.00000m  219.4080m 
  670.00000m  219.4399m 
  680.00000m  219.4717m 
  690.00000m  219.5035m 
  700.00000m  219.5353m 
  710.00000m  219.5671m 
  720.00000m  219.5989m 
  730.00000m  219.6307m 
  740.00000m  219.6624m 
  750.00000m  219.6942m 
  760.00000m  219.7259m 
  770.00000m  219.7577m 
  780.00000m  219.7894m 
  790.00000m  219.8212m 
  800.00000m  219.8529m 
  810.00000m  219.8846m 
  820.00000m  219.9163m 
  830.00000m  219.9480m 
  840.00000m  219.9797m 
  850.00000m  220.0114m 
  860.00000m  220.0431m 
  870.00000m  220.0747m 
  880.00000m  220.1064m 
  890.00000m  220.1381m 
  900.00000m  220.1697m 
  910.00000m  220.2013m 
  920.00000m  220.2330m 
  930.00000m  220.2646m 
  940.00000m  220.2962m 
  950.00000m  220.3278m 
  960.00000m  220.3594m 
  970.00000m  220.3910m 
  980.00000m  220.4226m 
  990.00000m  220.4542m 
    1.00000   220.4857m 
    1.01000   220.5173m 
    1.02000   220.5489m 
    1.03000   220.5804m 
    1.04000   220.6119m 
    1.05000   220.6435m 
y
 ******
 lab2 nmos

 ****** dc transfer curves tnom=  25.000 temp=  25.000 ******
  *** parameter 0:vgs  =     1.0000        ***
  
 x

 volt         current   
             m1         
    0.          0.      
   10.00000m    6.1184u 
   20.00000m   11.9294u 
   30.00000m   17.4491u 
   40.00000m   22.6925u 
   50.00000m   27.6735u 
   60.00000m   32.4052u 
   70.00000m   36.9000u 
   80.00000m   41.1693u 
   90.00000m   45.2242u 
  100.00000m   49.0747u 
  110.00000m   52.7307u 
  120.00000m   56.2014u 
  130.00000m   59.4955u 
  140.00000m   62.6213u 
  150.00000m   65.5870u 
  160.00000m   68.4001u 
  170.00000m   71.0683u 
  180.00000m   73.5988u 
  190.00000m   75.9988u 
  200.00000m   78.2753u 
  210.00000m   80.4354u 
  220.00000m   82.4861u 
  230.00000m   84.4344u 
  240.00000m   86.2871u 
  250.00000m   88.0513u 
  260.00000m   89.7334u 
  270.00000m   91.3400u 
  280.00000m   92.8769u 
  290.00000m   94.3500u 
  300.00000m   95.7642u 
  310.00000m   97.1244u 
  320.00000m   98.4348u 
  330.00000m   99.6992u 
  340.00000m  100.9211u 
  350.00000m  102.1037u 
  360.00000m  103.2497u 
  370.00000m  104.3619u 
  380.00000m  105.4425u 
  390.00000m  106.4936u 
  400.00000m  107.5173u 
  410.00000m  108.5154u 
  420.00000m  109.4893u 
  430.00000m  110.4407u 
  440.00000m  111.3709u 
  450.00000m  112.2812u 
  460.00000m  113.1727u 
  470.00000m  114.0465u 
  480.00000m  114.9036u 
  490.00000m  115.7448u 
  500.00000m  116.5711u 
  510.00000m  117.3832u 
  520.00000m  118.1819u 
  530.00000m  118.9677u 
  540.00000m  119.7414u 
  550.00000m  120.5035u 
  560.00000m  121.2546u 
  570.00000m  121.9951u 
  580.00000m  122.7256u 
  590.00000m  123.4465u 
  600.00000m  124.1583u 
  610.00000m  124.8612u 
  620.00000m  125.5557u 
  630.00000m  126.2421u 
  640.00000m  126.9208u 
  650.00000m  127.5921u 
  660.00000m  128.2562u 
  670.00000m  128.9135u 
  680.00000m  129.5641u 
  690.00000m  130.2084u 
  700.00000m  130.8465u 
  710.00000m  131.4788u 
  720.00000m  132.1054u 
  730.00000m  132.7264u 
  740.00000m  133.3422u 
  750.00000m  133.9528u 
  760.00000m  134.5585u 
  770.00000m  135.1594u 
  780.00000m  135.7557u 
  790.00000m  136.3475u 
  800.00000m  136.9349u 
  810.00000m  137.5181u 
  820.00000m  138.0973u 
  830.00000m  138.6726u 
  840.00000m  139.2440u 
  850.00000m  139.8116u 
  860.00000m  140.3757u 
  870.00000m  140.9363u 
  880.00000m  141.4935u 
  890.00000m  142.0474u 
  900.00000m  142.5980u 
  910.00000m  143.1456u 
  920.00000m  143.6901u 
  930.00000m  144.2317u 
  940.00000m  144.7704u 
  950.00000m  145.3063u 
  960.00000m  145.8394u 
  970.00000m  146.3700u 
  980.00000m  146.8979u 
  990.00000m  147.4233u 
    1.00000   147.9463u 
    1.01000   148.4669u 
    1.02000   148.9851u 
    1.03000   149.5011u 
    1.04000   150.0148u 
    1.05000   150.5264u 
y
 x

 volt         lv9       
             m1         
    0.        390.1888m 
   10.00000m  390.0614m 
   20.00000m  389.9340m 
   30.00000m  389.8066m 
   40.00000m  389.6792m 
   50.00000m  389.5518m 
   60.00000m  389.4244m 
   70.00000m  389.2970m 
   80.00000m  389.1697m 
   90.00000m  389.0423m 
  100.00000m  388.9149m 
  110.00000m  388.7875m 
  120.00000m  388.6601m 
  130.00000m  388.5327m 
  140.00000m  388.4053m 
  150.00000m  388.2779m 
  160.00000m  388.1505m 
  170.00000m  388.0231m 
  180.00000m  387.8957m 
  190.00000m  387.7683m 
  200.00000m  387.6409m 
  210.00000m  387.5135m 
  220.00000m  387.3862m 
  230.00000m  387.2588m 
  240.00000m  387.1314m 
  250.00000m  387.0040m 
  260.00000m  386.8766m 
  270.00000m  386.7492m 
  280.00000m  386.6218m 
  290.00000m  386.4944m 
  300.00000m  386.3670m 
  310.00000m  386.2396m 
  320.00000m  386.1122m 
  330.00000m  385.9848m 
  340.00000m  385.8574m 
  350.00000m  385.7300m 
  360.00000m  385.6026m 
  370.00000m  385.4753m 
  380.00000m  385.3479m 
  390.00000m  385.2205m 
  400.00000m  385.0931m 
  410.00000m  384.9657m 
  420.00000m  384.8383m 
  430.00000m  384.7109m 
  440.00000m  384.5835m 
  450.00000m  384.4561m 
  460.00000m  384.3287m 
  470.00000m  384.2013m 
  480.00000m  384.0739m 
  490.00000m  383.9465m 
  500.00000m  383.8191m 
  510.00000m  383.6918m 
  520.00000m  383.5644m 
  530.00000m  383.4370m 
  540.00000m  383.3096m 
  550.00000m  383.1822m 
  560.00000m  383.0548m 
  570.00000m  382.9274m 
  580.00000m  382.8000m 
  590.00000m  382.6726m 
  600.00000m  382.5452m 
  610.00000m  382.4178m 
  620.00000m  382.2904m 
  630.00000m  382.1630m 
  640.00000m  382.0356m 
  650.00000m  381.9082m 
  660.00000m  381.7809m 
  670.00000m  381.6535m 
  680.00000m  381.5261m 
  690.00000m  381.3987m 
  700.00000m  381.2713m 
  710.00000m  381.1439m 
  720.00000m  381.0165m 
  730.00000m  380.8891m 
  740.00000m  380.7617m 
  750.00000m  380.6343m 
  760.00000m  380.5069m 
  770.00000m  380.3795m 
  780.00000m  380.2521m 
  790.00000m  380.1247m 
  800.00000m  379.9973m 
  810.00000m  379.8700m 
  820.00000m  379.7426m 
  830.00000m  379.6152m 
  840.00000m  379.4878m 
  850.00000m  379.3604m 
  860.00000m  379.2330m 
  870.00000m  379.1056m 
  880.00000m  378.9782m 
  890.00000m  378.8508m 
  900.00000m  378.7234m 
  910.00000m  378.5960m 
  920.00000m  378.4686m 
  930.00000m  378.3412m 
  940.00000m  378.2138m 
  950.00000m  378.0865m 
  960.00000m  377.9591m 
  970.00000m  377.8317m 
  980.00000m  377.7043m 
  990.00000m  377.5769m 
    1.00000   377.4495m 
    1.01000   377.3221m 
    1.02000   377.1947m 
    1.03000   377.0673m 
    1.04000   376.9399m 
    1.05000   376.8125m 
y
 x

 volt         lv10      
             m1         
    0.        271.0248m 
   10.00000m  271.0491m 
   20.00000m  271.0734m 
   30.00000m  271.0978m 
   40.00000m  271.1221m 
   50.00000m  271.1464m 
   60.00000m  271.1707m 
   70.00000m  271.1950m 
   80.00000m  271.2193m 
   90.00000m  271.2436m 
  100.00000m  271.2679m 
  110.00000m  271.2922m 
  120.00000m  271.3165m 
  130.00000m  271.3407m 
  140.00000m  271.3650m 
  150.00000m  271.3893m 
  160.00000m  271.4135m 
  170.00000m  271.4378m 
  180.00000m  271.4621m 
  190.00000m  271.4863m 
  200.00000m  271.5105m 
  210.00000m  271.5348m 
  220.00000m  271.5590m 
  230.00000m  271.5832m 
  240.00000m  271.6075m 
  250.00000m  271.6317m 
  260.00000m  271.6559m 
  270.00000m  271.6801m 
  280.00000m  271.7043m 
  290.00000m  271.7285m 
  300.00000m  271.7527m 
  310.00000m  271.7769m 
  320.00000m  271.8010m 
  330.00000m  271.8252m 
  340.00000m  271.8494m 
  350.00000m  271.8736m 
  360.00000m  271.8977m 
  370.00000m  271.9219m 
  380.00000m  271.9460m 
  390.00000m  271.9702m 
  400.00000m  271.9943m 
  410.00000m  272.0185m 
  420.00000m  272.0426m 
  430.00000m  272.0667m 
  440.00000m  272.0908m 
  450.00000m  272.1150m 
  460.00000m  272.1391m 
  470.00000m  272.1632m 
  480.00000m  272.1873m 
  490.00000m  272.2114m 
  500.00000m  272.2355m 
  510.00000m  272.2596m 
  520.00000m  272.2836m 
  530.00000m  272.3077m 
  540.00000m  272.3318m 
  550.00000m  272.3559m 
  560.00000m  272.3799m 
  570.00000m  272.4040m 
  580.00000m  272.4280m 
  590.00000m  272.4521m 
  600.00000m  272.4761m 
  610.00000m  272.5002m 
  620.00000m  272.5242m 
  630.00000m  272.5482m 
  640.00000m  272.5723m 
  650.00000m  272.5963m 
  660.00000m  272.6203m 
  670.00000m  272.6443m 
  680.00000m  272.6683m 
  690.00000m  272.6923m 
  700.00000m  272.7163m 
  710.00000m  272.7403m 
  720.00000m  272.7643m 
  730.00000m  272.7883m 
  740.00000m  272.8123m 
  750.00000m  272.8362m 
  760.00000m  272.8602m 
  770.00000m  272.8842m 
  780.00000m  272.9081m 
  790.00000m  272.9321m 
  800.00000m  272.9560m 
  810.00000m  272.9800m 
  820.00000m  273.0039m 
  830.00000m  273.0278m 
  840.00000m  273.0517m 
  850.00000m  273.0757m 
  860.00000m  273.0996m 
  870.00000m  273.1235m 
  880.00000m  273.1474m 
  890.00000m  273.1713m 
  900.00000m  273.1952m 
  910.00000m  273.2191m 
  920.00000m  273.2430m 
  930.00000m  273.2669m 
  940.00000m  273.2908m 
  950.00000m  273.3146m 
  960.00000m  273.3385m 
  970.00000m  273.3624m 
  980.00000m  273.3862m 
  990.00000m  273.4101m 
    1.00000   273.4339m 
    1.01000   273.4578m 
    1.02000   273.4816m 
    1.03000   273.5055m 
    1.04000   273.5293m 
    1.05000   273.5531m 
y

          ***** job concluded
1****** HSPICE -- K-2015.06-3 linux64 (Aug  5 2015) ******                      
 ******  
 lab2 nmos

 ****** job statistics summary tnom=  25.000 temp=  25.000 ******
  
  
 ******  Machine Information  ******
 CPU:
 model name	: Intel(R) Xeon(R) Silver 4214Y CPU @ 2.20GHz
 cpu MHz	: 2194.844
  
 OS:
 Linux version 4.18.0-553.16.1.el8_10.x86_64 (mockbuild@x86-64-01.build.eng.rdu2.redhat.com) (gcc version 8.5.0 20210514 (Red Hat 8.5.0-22) (GCC)) #1 SMP Thu Aug 1 04:16:12 EDT 2024


  ******  HSPICE Threads Information  ******

  Command Line Threads Count :     1
  Available CPU Count        :     6
  Actual Threads Count       :     1


  ******  Circuit Statistics  ******
  # nodes       =       4 # elements   =       4
  # resistors   =       0 # capacitors =       0 # inductors   =       0
  # mutual_inds =       0 # vccs       =       0 # vcvs        =       0
  # cccs        =       0 # ccvs       =       0 # volt_srcs   =       3
  # curr_srcs   =       0 # diodes     =       0 # bjts        =       0
  # jfets       =       0 # mosfets    =       1 # U elements  =       0
  # T elements  =       0 # W elements =       0 # B elements  =       0
  # S elements  =       0 # P elements =       0 # va device   =       0
  # vector_srcs =       0 # N elements =       0


  ******  Runtime Statistics (seconds)  ******

  analysis           time    # points   tot. iter  conv.iter
  op point           0.00           1           0
  dc sweep           0.02         636        1278
  readin             1.11
  errchk             0.00
  setup              0.00
  output             0.00


           peak memory used        275.39 megabytes
           total cpu time            1.13 seconds
           total elapsed time        0.68 seconds
           job started at     15:19:15 11/11/2024
           job ended   at     15:19:16 11/11/2024


 lic: Release hspice token(s) 
 lic: total license checkout elapse time:        0.01(s)
