 ****** HSPICE -- K-2015.06-3 linux64 (Aug  5 2015) ******                      
  Copyright (c) 1986 - 2024 by Synopsys, Inc. All Rights Reserved.              
  This software and the associated documentation are proprietary
  to Synopsys, Inc. This software may only be used in accordance
  with the terms and conditions of a written license agreement with
  Synopsys, Inc. All other use, reproduction, or distribution of
  this software is strictly prohibited.
  Input File: lab2.sp                                                           
  Command line options: /usr/cots/synopsys/HSPICE-K-2015.06-3/hspice/linux64/hspice -i lab2.sp -o lab2-q5.lis
 lic:  
 lic: FLEXlm: v11.2.1 
 lic: USER:   mbass01              HOSTNAME: vm-hw04 
 lic: HOSTID: 005056000004         PID:      3917189 
 lic: Using FLEXlm license file: 
 lic: 27000@vm-license1 
 lic: Checkout 1 hspice 
 lic: License/Maintenance for hspice will expire on 15-sep-2026/2024.09 
 lic: 1(in_use)/50(total) FLOATING license(s) on SERVER 27000@vm-license1 
 lic:   
 Init: read install configuration file: /usr/cots/synopsys/HSPICE-K-2015.06-3/hspice/meta.cfg
1****** HSPICE -- K-2015.06-3 linux64 (Aug  5 2015) ******                      
 ******  
 lab2 nmos

 ****** mos   model parameters tnom=  25.000 temp=  25.000 ******
 Model file: lab2.sp
 Model line:           22
 Model Name: n105  
 BSIM4 Model (Level 54)
    MOBMOD = 0
    BINUNIT = 1
    PARAMCHK = 1
    CAPMOD = 2
    DIOMOD = 1
    RDSMOD = 0
    TRNQSMOD = 0
    ACNQSMOD = 0
    RBODYMOD = 0
    RGATEMOD = 0
    PERMOD = 1
    GEOMOD = 0
    RGEOMOD = 0
    FNOIMOD = 1
    TNOIMOD = 0
    IGCMOD = 0
    IGBMOD = 0
    STIMOD = 1
    VBFWDMOD = 0
    VERSION =   4.66 
    TOXREF =  3e-09 
    TOXE =  3e-09 
    TOXP =  3e-09 
    TOXM =  3e-09 
    DTOX =      0 
    EPSROX =    3.9 
    CDSC = 0.00024 
    CDSCB =      0 
    CDSCD =      0 
    CIT =      0 
    NFACTOR =      1 
    XJ = 1.5e-07 
    VSAT =  8e+04 
    A0 =      1 
    AGS =      0 
    A1 =      0 
    A2 =      1 
    AT = 3.3e+04 
    KETA = -0.047 
    NSUB =  6e+16 
    NDEP = 1.7e+17 
    NSD =  1e+20 
    NGATE =      0 
    GAMMA1 =      0 
    GAMMA2 =      0 
    VBX =      0 
    VBM =     -3 
    XT = 1.55e-07 
    K1 =      0 
    KT1 =  -0.11 
    KT1L =      0 
    KT2 =  0.022 
    K2 =      0 
    K3 =     80 
    K3B =      0 
    LPE0 = 1.74e-07 
    LPEB =      0 
    DVTP0 =      0 
    DVTP1 =      0 
    W0 = 2.5e-06 
    DVT0 =    2.2 
    DVT1 =   0.53 
    DVT2 = -0.032 
    DVT0W =      0 
    DVT1W = 5.3e+06 
    DVT2W = -0.032 
    DROUT =   0.56 
    DSUB =   0.56 
    VTH0 =    0.7 
    EU =   1.67 
    UA =  1e-09 
    UA1 =  1e-09 
    UB =  1e-19 
    UB1 = -1e-18 
    UC = -4.65e-11 
    UC1 = -5.6e-11 
    U0 =  0.067 
    UTE =   -1.5 
    VOFF =  -0.08 
    VOFFL =      0 
    MINV =      0 
    FPROUT =      0 
    PDITS =      0 
    PDITSD =      0 
    PDITSL =      0 
    DELTA =   0.01 
    RDSW =    200 
    RDSWMIN =      0 
    RDWMIN =      0 
    RSWMIN =      0 
    RDW =    100 
    RSW =    100 
    PRWG =      1 
    PRWB =      0 
    PRT =      0 
    ETA0 =   0.08 
    ETAB =  -0.07 
    PCLM =    1.3 
    PDIBLC1 =   0.39 
    PDIBLC2 = 0.0086 
    PDIBLCB =      0 
    PSCBE1 = 4.24e+08 
    PSCBE2 =  1e-05 
    PVAG =      0 
    WR =      1 
    DWG =      0 
    DWB =      0 
    XW =      0 
    XWREF =      0 
    XL =      0 
    XLREF =      0 
    B0 =      0 
    B1 =      0 
    ALPHA0 =      0 
    ALPHA1 =      0 
    AGIDL =      0 
    BGIDL = 2.3e+09 
    CGIDL =    0.5 
    PHIN =      0 
    EGIDL =    0.8 
    AIGC = 0.0136 
    BIGC = 0.00171 
    CIGC =  0.075 
    AIGSD = 0.0136 
    BIGSD = 0.00171 
    CIGSD =  0.075 
    AIGBACC = 0.0136 
    BIGBACC = 0.00171 
    CIGBACC =  0.075 
    AIGBINV = 0.0111 
    BIGBINV = 0.000949 
    CIGBINV =  0.006 
    NIGC =      1 
    NIGBINV =      3 
    NIGBACC =      1 
    NTOX =      1 
    EIGBINV =    1.1 
    PIGCD =      1 
    POXEDGE =      1 
    XRCRG1 =     12 
    TNOIA =    1.5 
    TNOIB =    3.5 
    NTNOI =      1 
    XRCRG2 =      1 
    BETA0 =      0 
    IJTHDFWD =    0.1 
    IJTHSFWD =    0.1 
    IJTHDREV =    0.1 
    IJTHSREV =    0.1 
    XJBVD =      1 
    XJBVS =      1 
    BVD =     10 
    BVS =     10 
    VFB =     -1 
    GBMIN =  1e-12 
    RBDB =     50 
    RBPB =     50 
    RBSB =     50 
    RBPS =     50 
    RBPD =     50 
    CGSL =      0 
    CGDL =      0 
    CKAPPAS =    0.6 
    CKAPPAD =    0.6 
    CF = 1.077e-10 
    CLC =  1e-07 
    CLE =    0.6 
    DWC =      0 
    DLC =      0 
    DLCIG =      0 
    DWJ =      0 
    VFBCV =     -1 
    ACDE =      1 
    MOIN =     15 
    NOFF =      1 
    VOFFCV =      0 
    DMCG =      0 
    DMCI =      0 
    DMDG =      0 
    DMCGT =      0 
    XGW =      0 
    XGL =      0 
    RSHG =    0.1 
    NGCON =      1 
    TCJ =      0 
    TPB =      0 
    TCJSW =      0 
    TPBSW =      0 
    TCJSWG =      0 
    TPBSWG =      0 
    SK0 =      0 
    SK1 =      0 
    SK2 =      0 
    SL =  2e-06 
    SW =  2e-06 
    K =      0 
    TNOM =  298.1 
    CGSO =      0 
    CGDO =      0 
    CGBO =      0 
    XPART =      0 
    RSH =      0 
    JSS = 0.0001 
    JSWS =      0 
    JSWGS =      0 
    PBS =      1 
    MJS =    0.5 
    PBSWS =      1 
    MJSWS =   0.33 
    CJS = 0.0005 
    CJSWS =  5e-10 
    NJS =      1 
    PBSWGS =      1 
    MJSWGS =   0.33 
    CJSWGS =  5e-10 
    XTIS =      3 
    JSD = 0.0001 
    JSWD =      0 
    JSWGD =      0 
    PBD =      1 
    MJD =    0.5 
    PBSWD =      1 
    MJSWD =   0.33 
    CJD = 0.0005 
    CJSWD =  5e-10 
    NJD =      1 
    PBSWGD =      1 
    MJSWGD =   0.33 
    CJSWGD =  5e-10 
    XTID =      3 
    LMLT =      1 
    WMLT =      1 
    LINT =      0 
    LL =      0 
    LLC =      0 
    LLN =      1 
    LW =      0 
    LWC =      0 
    LWN =      1 
    LWL =      0 
    LWLC =      0 
    LMIN =      0 
    LMAX =      1 
    WINT =      0 
    WL =      0 
    WLC =      0 
    WLN =      1 
    WW =      0 
    WWC =      0 
    WWN =      1 
    WWL =      0 
    WWLC =      0 
    WMIN =      0 
    WMAX =      1 
    NOIA = 6.25e+41 
    NOIB = 3.125e+26 
    NOIC = 8.75e+09 
    EM = 4.1e+07 
    EF =      1 
    AF =      1 
    KF =      0 
    TRS =      0 
    TRD =      0 
    TEMPMOD  =      0 
    LAMBDA   =      0 
    VTL      =  2e+05 m/s
    LC       =  5e-09 
    XN       =      3 
    LLAMBDA  =      0 
    LVTL     =      0 
    LXN      =      0 
    WLAMBDA  =      0 
    WVTL     =      0 
    WXN      =      0 
    PLAMBDA  =      0 
    PVTL     =      0 
    PXN      =      0 
    RNOIA    =  0.577 
    RNOIB    = 0.5164 
    SAREF(SA0) =  1e-06 m
    SBREF(SB0) =  1e-06 m
    WLOD     =      0 m
    KU0      =      0 1/m
    KVSAT    =      0 
    KVTH0    =      0 m
    TKU0     =      0 
    LLODKU0  =      0 
    WLODKU0  =      0 
    LLODVTH  =      0 
    WLODVTH  =      0 
    LKU0     =      0 
    WKU0     =      0 
    PKU0     =      0 
    LKVTH0   =      0 
    WKVTH0   =      0 
    PKVTH0   =      0 
    STK2     =      0 
    LODK2    =      1 
    STETA0   =      0 
    LODETA0  =      1 
    LXRCRG1  =      0 
    WXRCRG1  =      0 
    PXRCRG1  =      0 
    LXRCRG2  =      0 
    WXRCRG2  =      0 
    PXRCRG2  =      0 
     *** UCB's BSIM4.4.0 new diode model is activated. ***
    *** UCB's Diode Model Parameters ***
    JTSS         =      0 
    JTSSWS       =      0 
    JTSSWGS      =      0 
    JTSD         =      0 
    JTSSWD       =      0 
    JTSSWGD      =      0 
    NJTS         =     20 
    NJTSSW       =     20 
    NJTSSWG      =     20 
    XTSS         =   0.02 
    XTSSWS       =   0.02 
    XTSSWGS      =   0.02 
    XTSD         =   0.02 
    XTSSWD       =   0.02 
    XTSSWGD      =   0.02 
    TNJTS        =      0 
    TNJTSSW      =      0 
    TNJTSSWG     =      0 
    VFBSDOFF     =      0 
    LVFBSDOFF    =      0 
    WVFBSDOFF    =      0 
    PVFBSDOFF    =      0 
    LINTNOI      =      0 
    VTSS         =     10 
    VTSD         =     10 
    VTSSWS       =     10 
    VTSSWD       =     10 
    VTSSWGS      =     10 
    VTSSWGD      =     10 
    TTDIOMOD     =      1 
     *** UCB's BSIM4.5.0 new model is activated. ***
    UD         =      0 
    UD1        =      0 
    UP         =      0 
    LP         =  1e-08 
    TVOFF      =      0 
    TVFBSDOFF  =      0 
    RBPS0      =     50 
    RBPSL      =      0 
    RBPSW      =      0 
    RBPSNF     =      0 
    RBPD0      =     50 
    RBPDL      =      0 
    RBPDW      =      0 
    RBPDNF     =      0 
    RBPBX0     =    100 
    RBPBXL     =      0 
    RBPBXW     =      0 
    RBPBXNF    =      0 
    RBPBY0     =    100 
    RBPBYL     =      0 
    RBPBYW     =      0 
    RBPBYNF    =      0 
    RBSBX0     =    100 
    RBSBY0     =    100 
    RBDBX0     =    100 
    RBDBY0     =    100 
    RBSDBXL    =      0 
    RBSDBXW    =      0 
    RBSDBXNF   =      0 
    RBSDBYL    =      0 
    RBSDBYW    =      0 
    RBSDBYNF   =      0 
    LUD        =      0 
    LUD1       =      0 
    LUP        =      0 
    LLP        =      0 
    LTVOFF     =      0 
    LTVFBSDOFF =      0 
    WUD        =      0 
    WUD1       =      0 
    WUP        =      0 
    WLP        =      0 
    WTVOFF     =      0 
    WTVFBSDOFF =      0 
    PUD        =      0 
    PUD1       =      0 
    PUP        =      0 
    PLP        =      0 
    PTVOFF     =      0 
    PTVFBSDOFF =      0 
    WEB        =      0 
    WEC        =      0 
    KVTH0WE    =      0 
    K2WE       =      0 
    KU0WE      =      0 
    SCREF      =  1e-06 
    WPEMOD     =      0 
    LKVTH0WE   =      0 
    LK2WE      =      0 
    LKU0WE     =      0 
    WKVTH0WE   =      0 
    WK2WE      =      0 
    WKU0WE     =      0 
    PKVTH0WE   =      0 
    PK2WE      =      0 
    PKU0WE     =      0 
     *** UCB's BSIM4.6.0 new model is activated. ***
    AGISL     =      0 
    BGISL     = 2.3e+09 
    CGISL     =    0.5 
    EGISL     =    0.8 
    AIGS      = 0.0136 
    BIGS      = 0.00171 
    CIGS      =  0.075 
    AIGD      = 0.0136 
    BIGD      = 0.00171 
    CIGD      =  0.075 
    NJTSD     =     20 
    NJTSSWD   =     20 
    NJTSSWGD  =     20 
    TNJTSD    =      0 
    TNJTSSWD  =      0 
    TNJTSSWGD =      0 
    DLCIGD    =      0 
    LAGISL    =      0 
    LBGISL    =      0 
    LCGISL    =      0 
    LEGISL    =      0 
    LAIGS     =      0 
    LBIGS     =      0 
    LCIGS     =      0 
    LAIGD     =      0 
    LBIGD     =      0 
    LCIGD     =      0 
    WAGISL    =      0 
    WBGISL    =      0 
    WCGISL    =      0 
    WEGISL    =      0 
    WAIGS     =      0 
    WBIGS     =      0 
    WCIGS     =      0 
    WAIGD     =      0 
    WBIGD     =      0 
    WCIGD     =      0 
    PAGISL    =      0 
    PBGISL    =      0 
    PCGISL    =      0 
    PEGISL    =      0 
    PAIGS     =      0 
    PBIGS     =      0 
    PCIGS     =      0 
    PAIGD     =      0 
    PBIGD     =      0 
    PCIGD     =      0 
     *** UCB's BSIM4.6.1 new model is activated. ***
    CVCHARGEMOD     = 0
    MTRLMOD     = 0
    EOT     = 1.5e-09 
    VDDEOT     =    1.5 
    ADOS     =      1 
    BDOS     =      1 
    PHIG     =   4.05 
    EPSRGATE     =   11.7 
    EASUB     =   4.05 
    EPSRSUB     =   11.7 
    NI0SUB     = 1.45e+10 
    BG0SUB     =   1.16 
    TBGASUB     = 0.000702 
    TBGBSUB     =   1108 
    MINVCV     =      0 
    VOFFCV1     =      0 
    LMINVCV     =      0 
    WMINVCV     =      0 
    PMINVCV     =      0 
    TEMPEOT     =  300.1 
    LEFFEOT     =      1 
    WEFFEOT     =     10 
    UCS         =   1.67 
    UCSTE       = -0.004775 
    LUCS        =      0 
    LUCSTE      =      0 
    WUCS        =      0 
    WUCSTE      =      0 
    PUCS        =      0 
    PUCSTE      =      0 
    JTWEFF      =      0 
     *** UCB's BSIM4.6.6 new model is activated. ***
    GIDLMOD     = 0
    DVTP2       =      0 
    DVTP3       =      0 
    DVTP4       =      0 
    DVTP5       =      0 
    TNFACTOR    =      0 
    TETA0       =      0 
    TVOFFCV     =      0 
    FGIDL       =      0 
    KGIDL       =      0 
    RGIDL       =      1 
    FGISL       =      0 
    KGISL       =      0 
    RGISL       =      1 
    TNOIC       =      0 
    RNOIC       =  0.395 
    LDVTP2      =      0 
    LDVTP3      =      0 
    LDVTP4      =      0 
    LDVTP5      =      0 
    LTNFACTOR   =      0 
    LTETA0      =      0 
    LTVOFFCV    =      0 
    LFGIDL      =      0 
    LKGIDL      =      0 
    LRGIDL      =      0 
    LFGISL      =      0 
    LKGISL      =      0 
    LRGISL      =      0 
    WDVTP2      =      0 
    WDVTP3      =      0 
    WDVTP4      =      0 
    WDVTP5      =      0 
    WTNFACTOR   =      0 
    WTETA0      =      0 
    WTVOFFCV    =      0 
    WFGIDL      =      0 
    WKGIDL      =      0 
    WRGIDL      =      0 
    WFGISL      =      0 
    WKGISL      =      0 
    WRGISL      =      0 
    PDVTP2      =      0 
    PDVTP3      =      0 
    PDVTP4      =      0 
    PDVTP5      =      0 
    PTNFACTOR   =      0 
    PTETA0      =      0 
    PTVOFFCV    =      0 
    PFGIDL      =      0 
    PKGIDL      =      0 
    PRGIDL      =      0 
    PFGISL      =      0 
    PKGISL      =      0 
    PRGISL      =      0 
  
      
 *****************************************************************
 ******  option summary
 ******
 runlvl  = 3         bypass  = 2         
 ******
 lab2 nmos

 ****** dc transfer curves tnom=  25.000 temp=  25.000 ******
 x

 volt         lv9       
             m1         
   -1.05000   409.4703m 
   -1.04000   409.3933m 
   -1.03000   409.3131m 
   -1.02000   409.2297m 
   -1.01000   409.1430m 
   -1.00000   409.0530m 
 -990.00000m  408.9597m 
 -980.00000m  408.8630m 
 -970.00000m  408.7630m 
 -960.00000m  408.6596m 
 -950.00000m  408.5528m 
 -940.00000m  408.4425m 
 -930.00000m  408.3288m 
 -920.00000m  408.2115m 
 -910.00000m  408.0908m 
 -900.00000m  407.9665m 
 -890.00000m  407.8386m 
 -880.00000m  407.7071m 
 -870.00000m  407.5719m 
 -860.00000m  407.4331m 
 -850.00000m  407.2906m 
 -840.00000m  407.1444m 
 -830.00000m  406.9944m 
 -820.00000m  406.8406m 
 -810.00000m  406.6830m 
 -800.00000m  406.5215m 
 -790.00000m  406.3562m 
 -780.00000m  406.1869m 
 -770.00000m  406.0137m 
 -760.00000m  405.8365m 
 -750.00000m  405.6552m 
 -740.00000m  405.4699m 
 -730.00000m  405.2805m 
 -720.00000m  405.0870m 
 -710.00000m  404.8893m 
 -700.00000m  404.6873m 
 -690.00000m  404.4812m 
 -680.00000m  404.2707m 
 -670.00000m  404.0559m 
 -660.00000m  403.8368m 
 -650.00000m  403.6132m 
 -640.00000m  403.3852m 
 -630.00000m  403.1527m 
 -620.00000m  402.9157m 
 -610.00000m  402.6741m 
 -600.00000m  402.4278m 
 -590.00000m  402.1769m 
 -580.00000m  401.9213m 
 -570.00000m  401.6609m 
 -560.00000m  401.3956m 
 -550.00000m  401.1256m 
 -540.00000m  400.8506m 
 -530.00000m  400.5706m 
 -520.00000m  400.2856m 
 -510.00000m  399.9956m 
 -500.00000m  399.7004m 
 -490.00000m  399.4001m 
 -480.00000m  399.0945m 
 -470.00000m  398.7837m 
 -460.00000m  398.4674m 
 -450.00000m  398.1458m 
 -440.00000m  397.8187m 
 -430.00000m  397.4861m 
 -420.00000m  397.1479m 
 -410.00000m  396.8041m 
 -400.00000m  396.4545m 
 -390.00000m  396.0991m 
 -380.00000m  395.7379m 
 -370.00000m  395.3707m 
 -360.00000m  394.9975m 
 -350.00000m  394.6183m 
 -340.00000m  394.2330m 
 -330.00000m  393.8414m 
 -320.00000m  393.4435m 
 -310.00000m  393.0392m 
 -300.00000m  392.6285m 
 -290.00000m  392.2112m 
 -280.00000m  391.7874m 
 -270.00000m  391.3568m 
 -260.00000m  390.9194m 
 -250.00000m  390.4751m 
 -240.00000m  390.0238m 
 -230.00000m  389.5655m 
 -220.00000m  389.1000m 
 -210.00000m  388.6272m 
 -200.00000m  388.1470m 
 -190.00000m  387.6594m 
 -180.00000m  387.1641m 
 -170.00000m  386.6612m 
 -160.00000m  386.1505m 
 -150.00000m  385.6318m 
 -140.00000m  385.1051m 
 -130.00000m  384.5703m 
 -120.00000m  384.0271m 
 -110.00000m  383.4755m 
 -100.00000m  382.9154m 
  -90.00000m  382.3466m 
  -80.00000m  381.7690m 
  -70.00000m  381.1824m 
  -60.00000m  380.5867m 
  -50.00000m  379.9818m 
  -40.00000m  379.3674m 
  -30.00000m  378.7435m 
  -20.00000m  378.1098m 
  -10.00000m  377.4662m 
    0.        376.8125m 
   10.00000m  376.1486m 
   20.00000m  375.4742m 
   30.00000m  374.7892m 
   40.00000m  374.0933m 
   50.00000m  373.3864m 
   60.00000m  372.6683m 
   70.00000m  371.9387m 
   80.00000m  371.1974m 
   90.00000m  370.4441m 
  100.00000m  369.6787m 
  110.00000m  368.9010m 
  120.00000m  368.1105m 
  130.00000m  367.3071m 
  140.00000m  366.4905m 
  150.00000m  365.6604m 
  160.00000m  364.8165m 
  170.00000m  363.9585m 
  180.00000m  363.0861m 
  190.00000m  362.1990m 
  200.00000m  361.2967m 
  210.00000m  360.3791m 
  220.00000m  359.4455m 
  230.00000m  358.4958m 
  240.00000m  357.5295m 
  250.00000m  356.5461m 
  260.00000m  355.5452m 
  270.00000m  354.5264m 
  280.00000m  353.4892m 
  290.00000m  352.4330m 
  300.00000m  351.3574m 
  310.00000m  350.2618m 
  320.00000m  349.1456m 
  330.00000m  348.0083m 
  340.00000m  346.8491m 
  350.00000m  345.6674m 
  360.00000m  344.4625m 
  370.00000m  343.2337m 
  380.00000m  341.9802m 
  390.00000m  340.7012m 
  400.00000m  339.3958m 
  410.00000m  338.0630m 
  420.00000m  336.7020m 
  430.00000m  335.3116m 
  440.00000m  333.8908m 
  450.00000m  332.4385m 
  460.00000m  330.9534m 
  470.00000m  329.4342m 
  480.00000m  327.8795m 
  490.00000m  326.2878m 
  500.00000m  324.6575m 
  510.00000m  322.9870m 
  520.00000m  321.2743m 
  530.00000m  319.5177m 
  540.00000m  317.7149m 
  550.00000m  315.8637m 
  560.00000m  313.9618m 
  570.00000m  312.0065m 
  580.00000m  309.9951m 
  590.00000m  307.9246m 
  600.00000m  305.7917m 
  610.00000m  303.5932m 
  620.00000m  301.3253m 
  630.00000m  298.9842m 
  640.00000m  296.5660m 
  650.00000m  294.0666m 
  660.00000m  291.4819m 
  670.00000m  288.8081m 
  680.00000m  286.0421m 
  690.00000m  283.1817m 
  700.00000m  280.2270m 
  710.00000m  277.1814m 
  720.00000m  274.0540m 
  730.00000m  270.8625m 
  740.00000m  267.6376m 
  750.00000m  264.4276m 
  760.00000m  261.3009m 
  770.00000m  258.3431m 
  780.00000m  255.6426m 
  790.00000m  253.2684m 
  800.00000m  251.2506m 
  810.00000m  249.5776m 
  820.00000m  248.2094m 
  830.00000m  247.0947m 
  840.00000m  246.1840m 
  850.00000m  245.4344m 
  860.00000m  244.8117m 
  870.00000m  244.2891m 
  880.00000m  243.8461m 
  890.00000m  243.4669m 
  900.00000m  243.1394m 
  910.00000m  242.8542m 
  920.00000m  242.6038m 
  930.00000m  242.3825m 
  940.00000m  242.1856m 
  950.00000m  242.0094m 
  960.00000m  241.8509m 
  970.00000m  241.7076m 
  980.00000m  241.5774m 
  990.00000m  241.4587m 
 1000.00000m  241.3500m 
    1.01000   241.2502m 
    1.02000   241.1581m 
    1.03000   241.0730m 
    1.04000   240.9941m 
    1.05000   240.9208m 
y

          ***** job concluded
1****** HSPICE -- K-2015.06-3 linux64 (Aug  5 2015) ******                      
 ******  
 lab2 nmos

 ****** job statistics summary tnom=  25.000 temp=  25.000 ******
  
  
 ******  Machine Information  ******
 CPU:
 model name	: Intel(R) Xeon(R) Silver 4214Y CPU @ 2.20GHz
 cpu MHz	: 2194.844
  
 OS:
 Linux version 4.18.0-553.16.1.el8_10.x86_64 (mockbuild@x86-64-01.build.eng.rdu2.redhat.com) (gcc version 8.5.0 20210514 (Red Hat 8.5.0-22) (GCC)) #1 SMP Thu Aug 1 04:16:12 EDT 2024


  ******  HSPICE Threads Information  ******

  Command Line Threads Count :     1
  Available CPU Count        :     6
  Actual Threads Count       :     1


  ******  Circuit Statistics  ******
  # nodes       =       4 # elements   =       4
  # resistors   =       0 # capacitors =       0 # inductors   =       0
  # mutual_inds =       0 # vccs       =       0 # vcvs        =       0
  # cccs        =       0 # ccvs       =       0 # volt_srcs   =       3
  # curr_srcs   =       0 # diodes     =       0 # bjts        =       0
  # jfets       =       0 # mosfets    =       1 # U elements  =       0
  # T elements  =       0 # W elements =       0 # B elements  =       0
  # S elements  =       0 # P elements =       0 # va device   =       0
  # vector_srcs =       0 # N elements =       0


  ******  Runtime Statistics (seconds)  ******

  analysis           time    # points   tot. iter  conv.iter
  op point           0.00           1           0
  dc sweep           0.00         211         423
  readin             1.11
  errchk             0.01
  setup              0.00
  output             0.00


           peak memory used        275.39 megabytes
           total cpu time            1.12 seconds
           total elapsed time        0.65 seconds
           job started at     17:07:56 11/11/2024
           job ended   at     17:07:57 11/11/2024


 lic: Release hspice token(s) 
 lic: total license checkout elapse time:        0.01(s)
