$DATA1 SOURCE='HSPICE' VERSION='K-2015.06-3 linux64' PARAM_COUNT=0
.TITLE 'inverter'
 tphl             tplh             temper           alter#          
  3.427e-11        3.353e-11         25.0000        3               
