$DATA1 SOURCE='HSPICE' VERSION='K-2015.06-3 linux64' PARAM_COUNT=0
.TITLE 'inverter'
 tphl             tplh             temper           alter#          
  6.393e-11        6.744e-11         25.0000        2               
