$DATA1 SOURCE='HSPICE' VERSION='K-2015.06-3 linux64' PARAM_COUNT=0
.TITLE 'inverter'
 outrise          outfall          temper           alter#          
  8.280e-12        7.407e-12         25.0000        1               
