$DATA1 SOURCE='HSPICE' VERSION='K-2015.06-3 linux64' PARAM_COUNT=0
.TITLE 'inverter'
 tphl             tplh             temper           alter#          
  2.378e-11        2.258e-11         25.0000        4               
