$DATA1 SOURCE='HSPICE' VERSION='K-2015.06-3 linux64' PARAM_COUNT=0
.TITLE 'vdd=1.05'
 tphl             tplh             temper           alter#          
  1.353e-11        1.202e-11         25.0000        8               
