 ****** HSPICE -- K-2015.06-3 linux64 (Aug  5 2015) ******                      
  Copyright (c) 1986 - 2024 by Synopsys, Inc. All Rights Reserved.              
  This software and the associated documentation are proprietary
  to Synopsys, Inc. This software may only be used in accordance
  with the terms and conditions of a written license agreement with
  Synopsys, Inc. All other use, reproduction, or distribution of
  this software is strictly prohibited.
  Input File: lab03_measure.sp                                                  
  Command line options: /usr/cots/synopsys/HSPICE-K-2015.06-3/hspice/linux64/hspice -i lab03_measure.sp -o lab03_measure-q3.lis
 lic:  
 lic: FLEXlm: v11.2.1 
 lic: USER:   mbass01              HOSTNAME: vm-hw04 
 lic: HOSTID: 005056000004         PID:      4127240 
 lic: Using FLEXlm license file: 
 lic: 27000@vm-license1 
 lic: Checkout 1 hspice 
 lic: License/Maintenance for hspice will expire on 15-sep-2026/2024.09 
 lic: 1(in_use)/50(total) FLOATING license(s) on SERVER 27000@vm-license1 
 lic:   
 Init: read install configuration file: /usr/cots/synopsys/HSPICE-K-2015.06-3/hspice/meta.cfg
  **warning** (lab03_measure.sp:95) Unrecognized output type for vout in .print or .probe; The line is ignored.
1****** HSPICE -- K-2015.06-3 linux64 (Aug  5 2015) ******                      
 ******  
 inverter

 ****** mos   model parameters tnom=  25.000 temp=  25.000 ******
 Model file: lab03_measure.sp
 Model line:           12
 Model Name: n105  
 BSIM4 Model (Level 54)
    MOBMOD = 0
    BINUNIT = 1
    PARAMCHK = 1
    CAPMOD = 2
    DIOMOD = 1
    RDSMOD = 0
    TRNQSMOD = 0
    ACNQSMOD = 0
    RBODYMOD = 0
    RGATEMOD = 0
    PERMOD = 1
    GEOMOD = 0
    RGEOMOD = 0
    FNOIMOD = 1
    TNOIMOD = 0
    IGCMOD = 0
    IGBMOD = 0
    STIMOD = 1
    VBFWDMOD = 0
    VERSION =   4.66 
    TOXREF =  3e-09 
    TOXE =  3e-09 
    TOXP =  3e-09 
    TOXM =  3e-09 
    DTOX =      0 
    EPSROX =    3.9 
    CDSC = 0.00024 
    CDSCB =      0 
    CDSCD =      0 
    CIT =      0 
    NFACTOR =      1 
    XJ = 1.5e-07 
    VSAT =  8e+04 
    A0 =      1 
    AGS =      0 
    A1 =      0 
    A2 =      1 
    AT = 3.3e+04 
    KETA = -0.047 
    NSUB =  6e+16 
    NDEP = 1.7e+17 
    NSD =  1e+20 
    NGATE =      0 
    GAMMA1 =      0 
    GAMMA2 =      0 
    VBX =      0 
    VBM =     -3 
    XT = 1.55e-07 
    K1 =      0 
    KT1 =  -0.11 
    KT1L =      0 
    KT2 =  0.022 
    K2 =      0 
    K3 =     80 
    K3B =      0 
    LPE0 = 1.74e-07 
    LPEB =      0 
    DVTP0 =      0 
    DVTP1 =      0 
    W0 = 2.5e-06 
    DVT0 =    2.2 
    DVT1 =   0.53 
    DVT2 = -0.032 
    DVT0W =      0 
    DVT1W = 5.3e+06 
    DVT2W = -0.032 
    DROUT =   0.56 
    DSUB =   0.56 
    VTH0 =    0.7 
    EU =   1.67 
    UA =  1e-09 
    UA1 =  1e-09 
    UB =  1e-19 
    UB1 = -1e-18 
    UC = -4.65e-11 
    UC1 = -5.6e-11 
    U0 =  0.067 
    UTE =   -1.5 
    VOFF =  -0.08 
    VOFFL =      0 
    MINV =      0 
    FPROUT =      0 
    PDITS =      0 
    PDITSD =      0 
    PDITSL =      0 
    DELTA =   0.01 
    RDSW =    200 
    RDSWMIN =      0 
    RDWMIN =      0 
    RSWMIN =      0 
    RDW =    100 
    RSW =    100 
    PRWG =      1 
    PRWB =      0 
    PRT =      0 
    ETA0 =   0.08 
    ETAB =  -0.07 
    PCLM =    1.3 
    PDIBLC1 =   0.39 
    PDIBLC2 = 0.0086 
    PDIBLCB =      0 
    PSCBE1 = 4.24e+08 
    PSCBE2 =  1e-05 
    PVAG =      0 
    WR =      1 
    DWG =      0 
    DWB =      0 
    XW =      0 
    XWREF =      0 
    XL =      0 
    XLREF =      0 
    B0 =      0 
    B1 =      0 
    ALPHA0 =      0 
    ALPHA1 =      0 
    AGIDL =      0 
    BGIDL = 2.3e+09 
    CGIDL =    0.5 
    PHIN =      0 
    EGIDL =    0.8 
    AIGC = 0.0136 
    BIGC = 0.00171 
    CIGC =  0.075 
    AIGSD = 0.0136 
    BIGSD = 0.00171 
    CIGSD =  0.075 
    AIGBACC = 0.0136 
    BIGBACC = 0.00171 
    CIGBACC =  0.075 
    AIGBINV = 0.0111 
    BIGBINV = 0.000949 
    CIGBINV =  0.006 
    NIGC =      1 
    NIGBINV =      3 
    NIGBACC =      1 
    NTOX =      1 
    EIGBINV =    1.1 
    PIGCD =      1 
    POXEDGE =      1 
    XRCRG1 =     12 
    TNOIA =    1.5 
    TNOIB =    3.5 
    NTNOI =      1 
    XRCRG2 =      1 
    BETA0 =      0 
    IJTHDFWD =    0.1 
    IJTHSFWD =    0.1 
    IJTHDREV =    0.1 
    IJTHSREV =    0.1 
    XJBVD =      1 
    XJBVS =      1 
    BVD =     10 
    BVS =     10 
    VFB =     -1 
    GBMIN =  1e-12 
    RBDB =     50 
    RBPB =     50 
    RBSB =     50 
    RBPS =     50 
    RBPD =     50 
    CGSL =      0 
    CGDL =      0 
    CKAPPAS =    0.6 
    CKAPPAD =    0.6 
    CF = 1.077e-10 
    CLC =  1e-07 
    CLE =    0.6 
    DWC =      0 
    DLC =      0 
    DLCIG =      0 
    DWJ =      0 
    VFBCV =     -1 
    ACDE =      1 
    MOIN =     15 
    NOFF =      1 
    VOFFCV =      0 
    DMCG =      0 
    DMCI =      0 
    DMDG =      0 
    DMCGT =      0 
    XGW =      0 
    XGL =      0 
    RSHG =    0.1 
    NGCON =      1 
    TCJ =      0 
    TPB =      0 
    TCJSW =      0 
    TPBSW =      0 
    TCJSWG =      0 
    TPBSWG =      0 
    SK0 =      0 
    SK1 =      0 
    SK2 =      0 
    SL =  2e-06 
    SW =  2e-06 
    K =      0 
    TNOM =  298.1 
    CGSO =      0 
    CGDO =      0 
    CGBO =      0 
    XPART =      0 
    RSH =      0 
    JSS = 0.0001 
    JSWS =      0 
    JSWGS =      0 
    PBS =      1 
    MJS =    0.5 
    PBSWS =      1 
    MJSWS =   0.33 
    CJS = 0.0005 
    CJSWS =  5e-10 
    NJS =      1 
    PBSWGS =      1 
    MJSWGS =   0.33 
    CJSWGS =  5e-10 
    XTIS =      3 
    JSD = 0.0001 
    JSWD =      0 
    JSWGD =      0 
    PBD =      1 
    MJD =    0.5 
    PBSWD =      1 
    MJSWD =   0.33 
    CJD = 0.0005 
    CJSWD =  5e-10 
    NJD =      1 
    PBSWGD =      1 
    MJSWGD =   0.33 
    CJSWGD =  5e-10 
    XTID =      3 
    LMLT =      1 
    WMLT =      1 
    LINT =      0 
    LL =      0 
    LLC =      0 
    LLN =      1 
    LW =      0 
    LWC =      0 
    LWN =      1 
    LWL =      0 
    LWLC =      0 
    LMIN =      0 
    LMAX =      1 
    WINT =      0 
    WL =      0 
    WLC =      0 
    WLN =      1 
    WW =      0 
    WWC =      0 
    WWN =      1 
    WWL =      0 
    WWLC =      0 
    WMIN =      0 
    WMAX =      1 
    NOIA = 6.25e+41 
    NOIB = 3.125e+26 
    NOIC = 8.75e+09 
    EM = 4.1e+07 
    EF =      1 
    AF =      1 
    KF =      0 
    TRS =      0 
    TRD =      0 
    TEMPMOD  =      0 
    LAMBDA   =      0 
    VTL      =  2e+05 m/s
    LC       =  5e-09 
    XN       =      3 
    LLAMBDA  =      0 
    LVTL     =      0 
    LXN      =      0 
    WLAMBDA  =      0 
    WVTL     =      0 
    WXN      =      0 
    PLAMBDA  =      0 
    PVTL     =      0 
    PXN      =      0 
    RNOIA    =  0.577 
    RNOIB    = 0.5164 
    SAREF(SA0) =  1e-06 m
    SBREF(SB0) =  1e-06 m
    WLOD     =      0 m
    KU0      =      0 1/m
    KVSAT    =      0 
    KVTH0    =      0 m
    TKU0     =      0 
    LLODKU0  =      0 
    WLODKU0  =      0 
    LLODVTH  =      0 
    WLODVTH  =      0 
    LKU0     =      0 
    WKU0     =      0 
    PKU0     =      0 
    LKVTH0   =      0 
    WKVTH0   =      0 
    PKVTH0   =      0 
    STK2     =      0 
    LODK2    =      1 
    STETA0   =      0 
    LODETA0  =      1 
    LXRCRG1  =      0 
    WXRCRG1  =      0 
    PXRCRG1  =      0 
    LXRCRG2  =      0 
    WXRCRG2  =      0 
    PXRCRG2  =      0 
     *** UCB's BSIM4.4.0 new diode model is activated. ***
    *** UCB's Diode Model Parameters ***
    JTSS         =      0 
    JTSSWS       =      0 
    JTSSWGS      =      0 
    JTSD         =      0 
    JTSSWD       =      0 
    JTSSWGD      =      0 
    NJTS         =     20 
    NJTSSW       =     20 
    NJTSSWG      =     20 
    XTSS         =   0.02 
    XTSSWS       =   0.02 
    XTSSWGS      =   0.02 
    XTSD         =   0.02 
    XTSSWD       =   0.02 
    XTSSWGD      =   0.02 
    TNJTS        =      0 
    TNJTSSW      =      0 
    TNJTSSWG     =      0 
    VFBSDOFF     =      0 
    LVFBSDOFF    =      0 
    WVFBSDOFF    =      0 
    PVFBSDOFF    =      0 
    LINTNOI      =      0 
    VTSS         =     10 
    VTSD         =     10 
    VTSSWS       =     10 
    VTSSWD       =     10 
    VTSSWGS      =     10 
    VTSSWGD      =     10 
    TTDIOMOD     =      1 
     *** UCB's BSIM4.5.0 new model is activated. ***
    UD         =      0 
    UD1        =      0 
    UP         =      0 
    LP         =  1e-08 
    TVOFF      =      0 
    TVFBSDOFF  =      0 
    RBPS0      =     50 
    RBPSL      =      0 
    RBPSW      =      0 
    RBPSNF     =      0 
    RBPD0      =     50 
    RBPDL      =      0 
    RBPDW      =      0 
    RBPDNF     =      0 
    RBPBX0     =    100 
    RBPBXL     =      0 
    RBPBXW     =      0 
    RBPBXNF    =      0 
    RBPBY0     =    100 
    RBPBYL     =      0 
    RBPBYW     =      0 
    RBPBYNF    =      0 
    RBSBX0     =    100 
    RBSBY0     =    100 
    RBDBX0     =    100 
    RBDBY0     =    100 
    RBSDBXL    =      0 
    RBSDBXW    =      0 
    RBSDBXNF   =      0 
    RBSDBYL    =      0 
    RBSDBYW    =      0 
    RBSDBYNF   =      0 
    LUD        =      0 
    LUD1       =      0 
    LUP        =      0 
    LLP        =      0 
    LTVOFF     =      0 
    LTVFBSDOFF =      0 
    WUD        =      0 
    WUD1       =      0 
    WUP        =      0 
    WLP        =      0 
    WTVOFF     =      0 
    WTVFBSDOFF =      0 
    PUD        =      0 
    PUD1       =      0 
    PUP        =      0 
    PLP        =      0 
    PTVOFF     =      0 
    PTVFBSDOFF =      0 
    WEB        =      0 
    WEC        =      0 
    KVTH0WE    =      0 
    K2WE       =      0 
    KU0WE      =      0 
    SCREF      =  1e-06 
    WPEMOD     =      0 
    LKVTH0WE   =      0 
    LK2WE      =      0 
    LKU0WE     =      0 
    WKVTH0WE   =      0 
    WK2WE      =      0 
    WKU0WE     =      0 
    PKVTH0WE   =      0 
    PK2WE      =      0 
    PKU0WE     =      0 
     *** UCB's BSIM4.6.0 new model is activated. ***
    AGISL     =      0 
    BGISL     = 2.3e+09 
    CGISL     =    0.5 
    EGISL     =    0.8 
    AIGS      = 0.0136 
    BIGS      = 0.00171 
    CIGS      =  0.075 
    AIGD      = 0.0136 
    BIGD      = 0.00171 
    CIGD      =  0.075 
    NJTSD     =     20 
    NJTSSWD   =     20 
    NJTSSWGD  =     20 
    TNJTSD    =      0 
    TNJTSSWD  =      0 
    TNJTSSWGD =      0 
    DLCIGD    =      0 
    LAGISL    =      0 
    LBGISL    =      0 
    LCGISL    =      0 
    LEGISL    =      0 
    LAIGS     =      0 
    LBIGS     =      0 
    LCIGS     =      0 
    LAIGD     =      0 
    LBIGD     =      0 
    LCIGD     =      0 
    WAGISL    =      0 
    WBGISL    =      0 
    WCGISL    =      0 
    WEGISL    =      0 
    WAIGS     =      0 
    WBIGS     =      0 
    WCIGS     =      0 
    WAIGD     =      0 
    WBIGD     =      0 
    WCIGD     =      0 
    PAGISL    =      0 
    PBGISL    =      0 
    PCGISL    =      0 
    PEGISL    =      0 
    PAIGS     =      0 
    PBIGS     =      0 
    PCIGS     =      0 
    PAIGD     =      0 
    PBIGD     =      0 
    PCIGD     =      0 
     *** UCB's BSIM4.6.1 new model is activated. ***
    CVCHARGEMOD     = 0
    MTRLMOD     = 0
    EOT     = 1.5e-09 
    VDDEOT     =    1.5 
    ADOS     =      1 
    BDOS     =      1 
    PHIG     =   4.05 
    EPSRGATE     =   11.7 
    EASUB     =   4.05 
    EPSRSUB     =   11.7 
    NI0SUB     = 1.45e+10 
    BG0SUB     =   1.16 
    TBGASUB     = 0.000702 
    TBGBSUB     =   1108 
    MINVCV     =      0 
    VOFFCV1     =      0 
    LMINVCV     =      0 
    WMINVCV     =      0 
    PMINVCV     =      0 
    TEMPEOT     =  300.1 
    LEFFEOT     =      1 
    WEFFEOT     =     10 
    UCS         =   1.67 
    UCSTE       = -0.004775 
    LUCS        =      0 
    LUCSTE      =      0 
    WUCS        =      0 
    WUCSTE      =      0 
    PUCS        =      0 
    PUCSTE      =      0 
    JTWEFF      =      0 
     *** UCB's BSIM4.6.6 new model is activated. ***
    GIDLMOD     = 0
    DVTP2       =      0 
    DVTP3       =      0 
    DVTP4       =      0 
    DVTP5       =      0 
    TNFACTOR    =      0 
    TETA0       =      0 
    TVOFFCV     =      0 
    FGIDL       =      0 
    KGIDL       =      0 
    RGIDL       =      1 
    FGISL       =      0 
    KGISL       =      0 
    RGISL       =      1 
    TNOIC       =      0 
    RNOIC       =  0.395 
    LDVTP2      =      0 
    LDVTP3      =      0 
    LDVTP4      =      0 
    LDVTP5      =      0 
    LTNFACTOR   =      0 
    LTETA0      =      0 
    LTVOFFCV    =      0 
    LFGIDL      =      0 
    LKGIDL      =      0 
    LRGIDL      =      0 
    LFGISL      =      0 
    LKGISL      =      0 
    LRGISL      =      0 
    WDVTP2      =      0 
    WDVTP3      =      0 
    WDVTP4      =      0 
    WDVTP5      =      0 
    WTNFACTOR   =      0 
    WTETA0      =      0 
    WTVOFFCV    =      0 
    WFGIDL      =      0 
    WKGIDL      =      0 
    WRGIDL      =      0 
    WFGISL      =      0 
    WKGISL      =      0 
    WRGISL      =      0 
    PDVTP2      =      0 
    PDVTP3      =      0 
    PDVTP4      =      0 
    PDVTP5      =      0 
    PTNFACTOR   =      0 
    PTETA0      =      0 
    PTVOFFCV    =      0 
    PFGIDL      =      0 
    PKGIDL      =      0 
    PRGIDL      =      0 
    PFGISL      =      0 
    PKGISL      =      0 
    PRGISL      =      0 
 Model file: lab03_measure.sp
 Model line:           13
 Model Name: p105  
 BSIM4 Model (Level 54)
    MOBMOD = 0
    BINUNIT = 1
    PARAMCHK = 1
    CAPMOD = 2
    DIOMOD = 1
    RDSMOD = 0
    TRNQSMOD = 0
    ACNQSMOD = 0
    RBODYMOD = 0
    RGATEMOD = 0
    PERMOD = 1
    GEOMOD = 0
    RGEOMOD = 0
    FNOIMOD = 1
    TNOIMOD = 0
    IGCMOD = 0
    IGBMOD = 0
    STIMOD = 1
    VBFWDMOD = 0
    VERSION =   4.66 
    TOXREF =  3e-09 
    TOXE =  3e-09 
    TOXP =  3e-09 
    TOXM =  3e-09 
    DTOX =      0 
    EPSROX =    3.9 
    CDSC = 0.00024 
    CDSCB =      0 
    CDSCD =      0 
    CIT =      0 
    NFACTOR =      1 
    XJ = 1.5e-07 
    VSAT =  8e+04 
    A0 =      1 
    AGS =      0 
    A1 =      0 
    A2 =      1 
    AT = 3.3e+04 
    KETA = -0.047 
    NSUB =  6e+16 
    NDEP = 1.7e+17 
    NSD =  1e+20 
    NGATE =      0 
    GAMMA1 =      0 
    GAMMA2 =      0 
    VBX =      0 
    VBM =     -3 
    XT = 1.55e-07 
    K1 =      0 
    KT1 =  -0.11 
    KT1L =      0 
    KT2 =  0.022 
    K2 =      0 
    K3 =     80 
    K3B =      0 
    LPE0 = 1.74e-07 
    LPEB =      0 
    DVTP0 =      0 
    DVTP1 =      0 
    W0 = 2.5e-06 
    DVT0 =    2.2 
    DVT1 =   0.53 
    DVT2 = -0.032 
    DVT0W =      0 
    DVT1W = 5.3e+06 
    DVT2W = -0.032 
    DROUT =   0.56 
    DSUB =   0.56 
    VTH0 =   -0.7 
    EU =      1 
    UA =  1e-09 
    UA1 =  1e-09 
    UB =  1e-19 
    UB1 = -1e-18 
    UC = -4.65e-11 
    UC1 = -5.6e-11 
    U0 =  0.025 
    UTE =   -1.5 
    VOFF =  -0.08 
    VOFFL =      0 
    MINV =      0 
    FPROUT =      0 
    PDITS =      0 
    PDITSD =      0 
    PDITSL =      0 
    DELTA =   0.01 
    RDSW =    200 
    RDSWMIN =      0 
    RDWMIN =      0 
    RSWMIN =      0 
    RDW =    100 
    RSW =    100 
    PRWG =      1 
    PRWB =      0 
    PRT =      0 
    ETA0 =   0.08 
    ETAB =  -0.07 
    PCLM =    1.3 
    PDIBLC1 =   0.39 
    PDIBLC2 = 0.0086 
    PDIBLCB =      0 
    PSCBE1 = 4.24e+08 
    PSCBE2 =  1e-05 
    PVAG =      0 
    WR =      1 
    DWG =      0 
    DWB =      0 
    XW =      0 
    XWREF =      0 
    XL =      0 
    XLREF =      0 
    B0 =      0 
    B1 =      0 
    ALPHA0 =      0 
    ALPHA1 =      0 
    AGIDL =      0 
    BGIDL = 2.3e+09 
    CGIDL =    0.5 
    PHIN =      0 
    EGIDL =    0.8 
    AIGC = 0.0098 
    BIGC = 0.000759 
    CIGC =   0.03 
    AIGSD = 0.0098 
    BIGSD = 0.000759 
    CIGSD =   0.03 
    AIGBACC = 0.0136 
    BIGBACC = 0.00171 
    CIGBACC =  0.075 
    AIGBINV = 0.0111 
    BIGBINV = 0.000949 
    CIGBINV =  0.006 
    NIGC =      1 
    NIGBINV =      3 
    NIGBACC =      1 
    NTOX =      1 
    EIGBINV =    1.1 
    PIGCD =      1 
    POXEDGE =      1 
    XRCRG1 =     12 
    TNOIA =    1.5 
    TNOIB =    3.5 
    NTNOI =      1 
    XRCRG2 =      1 
    BETA0 =      0 
    IJTHDFWD =    0.1 
    IJTHSFWD =    0.1 
    IJTHDREV =    0.1 
    IJTHSREV =    0.1 
    XJBVD =      1 
    XJBVS =      1 
    BVD =     10 
    BVS =     10 
    VFB =     -1 
    GBMIN =  1e-12 
    RBDB =     50 
    RBPB =     50 
    RBSB =     50 
    RBPS =     50 
    RBPD =     50 
    CGSL =      0 
    CGDL =      0 
    CKAPPAS =    0.6 
    CKAPPAD =    0.6 
    CF = 1.077e-10 
    CLC =  1e-07 
    CLE =    0.6 
    DWC =      0 
    DLC =      0 
    DLCIG =      0 
    DWJ =      0 
    VFBCV =     -1 
    ACDE =      1 
    MOIN =     15 
    NOFF =      1 
    VOFFCV =      0 
    DMCG =      0 
    DMCI =      0 
    DMDG =      0 
    DMCGT =      0 
    XGW =      0 
    XGL =      0 
    RSHG =    0.1 
    NGCON =      1 
    TCJ =      0 
    TPB =      0 
    TCJSW =      0 
    TPBSW =      0 
    TCJSWG =      0 
    TPBSWG =      0 
    SK0 =      0 
    SK1 =      0 
    SK2 =      0 
    SL =  2e-06 
    SW =  2e-06 
    K =      0 
    TNOM =  298.1 
    CGSO =      0 
    CGDO =      0 
    CGBO =      0 
    XPART =      0 
    RSH =      0 
    JSS = 0.0001 
    JSWS =      0 
    JSWGS =      0 
    PBS =      1 
    MJS =    0.5 
    PBSWS =      1 
    MJSWS =   0.33 
    CJS = 0.0005 
    CJSWS =  5e-10 
    NJS =      1 
    PBSWGS =      1 
    MJSWGS =   0.33 
    CJSWGS =  5e-10 
    XTIS =      3 
    JSD = 0.0001 
    JSWD =      0 
    JSWGD =      0 
    PBD =      1 
    MJD =    0.5 
    PBSWD =      1 
    MJSWD =   0.33 
    CJD = 0.0005 
    CJSWD =  5e-10 
    NJD =      1 
    PBSWGD =      1 
    MJSWGD =   0.33 
    CJSWGD =  5e-10 
    XTID =      3 
    LMLT =      1 
    WMLT =      1 
    LINT =      0 
    LL =      0 
    LLC =      0 
    LLN =      1 
    LW =      0 
    LWC =      0 
    LWN =      1 
    LWL =      0 
    LWLC =      0 
    LMIN =      0 
    LMAX =      1 
    WINT =      0 
    WL =      0 
    WLC =      0 
    WLN =      1 
    WW =      0 
    WWC =      0 
    WWN =      1 
    WWL =      0 
    WWLC =      0 
    WMIN =      0 
    WMAX =      1 
    NOIA = 6.188e+40 
    NOIB = 1.5e+25 
    NOIC = 8.75e+09 
    EM = 4.1e+07 
    EF =      1 
    AF =      1 
    KF =      0 
    TRS =      0 
    TRD =      0 
    TEMPMOD  =      0 
    LAMBDA   =      0 
    VTL      =  2e+05 m/s
    LC       =  5e-09 
    XN       =      3 
    LLAMBDA  =      0 
    LVTL     =      0 
    LXN      =      0 
    WLAMBDA  =      0 
    WVTL     =      0 
    WXN      =      0 
    PLAMBDA  =      0 
    PVTL     =      0 
    PXN      =      0 
    RNOIA    =  0.577 
    RNOIB    = 0.5164 
    SAREF(SA0) =  1e-06 m
    SBREF(SB0) =  1e-06 m
    WLOD     =      0 m
    KU0      =      0 1/m
    KVSAT    =      0 
    KVTH0    =      0 m
    TKU0     =      0 
    LLODKU0  =      0 
    WLODKU0  =      0 
    LLODVTH  =      0 
    WLODVTH  =      0 
    LKU0     =      0 
    WKU0     =      0 
    PKU0     =      0 
    LKVTH0   =      0 
    WKVTH0   =      0 
    PKVTH0   =      0 
    STK2     =      0 
    LODK2    =      1 
    STETA0   =      0 
    LODETA0  =      1 
    LXRCRG1  =      0 
    WXRCRG1  =      0 
    PXRCRG1  =      0 
    LXRCRG2  =      0 
    WXRCRG2  =      0 
    PXRCRG2  =      0 
     *** UCB's BSIM4.4.0 new diode model is activated. ***
    *** UCB's Diode Model Parameters ***
    JTSS         =      0 
    JTSSWS       =      0 
    JTSSWGS      =      0 
    JTSD         =      0 
    JTSSWD       =      0 
    JTSSWGD      =      0 
    NJTS         =     20 
    NJTSSW       =     20 
    NJTSSWG      =     20 
    XTSS         =   0.02 
    XTSSWS       =   0.02 
    XTSSWGS      =   0.02 
    XTSD         =   0.02 
    XTSSWD       =   0.02 
    XTSSWGD      =   0.02 
    TNJTS        =      0 
    TNJTSSW      =      0 
    TNJTSSWG     =      0 
    VFBSDOFF     =      0 
    LVFBSDOFF    =      0 
    WVFBSDOFF    =      0 
    PVFBSDOFF    =      0 
    LINTNOI      =      0 
    VTSS         =     10 
    VTSD         =     10 
    VTSSWS       =     10 
    VTSSWD       =     10 
    VTSSWGS      =     10 
    VTSSWGD      =     10 
    TTDIOMOD     =      1 
     *** UCB's BSIM4.5.0 new model is activated. ***
    UD         =      0 
    UD1        =      0 
    UP         =      0 
    LP         =  1e-08 
    TVOFF      =      0 
    TVFBSDOFF  =      0 
    RBPS0      =     50 
    RBPSL      =      0 
    RBPSW      =      0 
    RBPSNF     =      0 
    RBPD0      =     50 
    RBPDL      =      0 
    RBPDW      =      0 
    RBPDNF     =      0 
    RBPBX0     =    100 
    RBPBXL     =      0 
    RBPBXW     =      0 
    RBPBXNF    =      0 
    RBPBY0     =    100 
    RBPBYL     =      0 
    RBPBYW     =      0 
    RBPBYNF    =      0 
    RBSBX0     =    100 
    RBSBY0     =    100 
    RBDBX0     =    100 
    RBDBY0     =    100 
    RBSDBXL    =      0 
    RBSDBXW    =      0 
    RBSDBXNF   =      0 
    RBSDBYL    =      0 
    RBSDBYW    =      0 
    RBSDBYNF   =      0 
    LUD        =      0 
    LUD1       =      0 
    LUP        =      0 
    LLP        =      0 
    LTVOFF     =      0 
    LTVFBSDOFF =      0 
    WUD        =      0 
    WUD1       =      0 
    WUP        =      0 
    WLP        =      0 
    WTVOFF     =      0 
    WTVFBSDOFF =      0 
    PUD        =      0 
    PUD1       =      0 
    PUP        =      0 
    PLP        =      0 
    PTVOFF     =      0 
    PTVFBSDOFF =      0 
    WEB        =      0 
    WEC        =      0 
    KVTH0WE    =      0 
    K2WE       =      0 
    KU0WE      =      0 
    SCREF      =  1e-06 
    WPEMOD     =      0 
    LKVTH0WE   =      0 
    LK2WE      =      0 
    LKU0WE     =      0 
    WKVTH0WE   =      0 
    WK2WE      =      0 
    WKU0WE     =      0 
    PKVTH0WE   =      0 
    PK2WE      =      0 
    PKU0WE     =      0 
     *** UCB's BSIM4.6.0 new model is activated. ***
    AGISL     =      0 
    BGISL     = 2.3e+09 
    CGISL     =    0.5 
    EGISL     =    0.8 
    AIGS      = 0.0098 
    BIGS      = 0.000759 
    CIGS      =   0.03 
    AIGD      = 0.0098 
    BIGD      = 0.000759 
    CIGD      =   0.03 
    NJTSD     =     20 
    NJTSSWD   =     20 
    NJTSSWGD  =     20 
    TNJTSD    =      0 
    TNJTSSWD  =      0 
    TNJTSSWGD =      0 
    DLCIGD    =      0 
    LAGISL    =      0 
    LBGISL    =      0 
    LCGISL    =      0 
    LEGISL    =      0 
    LAIGS     =      0 
    LBIGS     =      0 
    LCIGS     =      0 
    LAIGD     =      0 
    LBIGD     =      0 
    LCIGD     =      0 
    WAGISL    =      0 
    WBGISL    =      0 
    WCGISL    =      0 
    WEGISL    =      0 
    WAIGS     =      0 
    WBIGS     =      0 
    WCIGS     =      0 
    WAIGD     =      0 
    WBIGD     =      0 
    WCIGD     =      0 
    PAGISL    =      0 
    PBGISL    =      0 
    PCGISL    =      0 
    PEGISL    =      0 
    PAIGS     =      0 
    PBIGS     =      0 
    PCIGS     =      0 
    PAIGD     =      0 
    PBIGD     =      0 
    PCIGD     =      0 
     *** UCB's BSIM4.6.1 new model is activated. ***
    CVCHARGEMOD     = 0
    MTRLMOD     = 0
    EOT     = 1.5e-09 
    VDDEOT     =    1.5 
    ADOS     =      1 
    BDOS     =      1 
    PHIG     =   4.05 
    EPSRGATE     =   11.7 
    EASUB     =   4.05 
    EPSRSUB     =   11.7 
    NI0SUB     = 1.45e+10 
    BG0SUB     =   1.16 
    TBGASUB     = 0.000702 
    TBGBSUB     =   1108 
    MINVCV     =      0 
    VOFFCV1     =      0 
    LMINVCV     =      0 
    WMINVCV     =      0 
    PMINVCV     =      0 
    TEMPEOT     =  300.1 
    LEFFEOT     =      1 
    WEFFEOT     =     10 
    UCS         =      1 
    UCSTE       = -0.004775 
    LUCS        =      0 
    LUCSTE      =      0 
    WUCS        =      0 
    WUCSTE      =      0 
    PUCS        =      0 
    PUCSTE      =      0 
    JTWEFF      =      0 
     *** UCB's BSIM4.6.6 new model is activated. ***
    GIDLMOD     = 0
    DVTP2       =      0 
    DVTP3       =      0 
    DVTP4       =      0 
    DVTP5       =      0 
    TNFACTOR    =      0 
    TETA0       =      0 
    TVOFFCV     =      0 
    FGIDL       =      0 
    KGIDL       =      0 
    RGIDL       =      1 
    FGISL       =      0 
    KGISL       =      0 
    RGISL       =      1 
    TNOIC       =      0 
    RNOIC       =  0.395 
    LDVTP2      =      0 
    LDVTP3      =      0 
    LDVTP4      =      0 
    LDVTP5      =      0 
    LTNFACTOR   =      0 
    LTETA0      =      0 
    LTVOFFCV    =      0 
    LFGIDL      =      0 
    LKGIDL      =      0 
    LRGIDL      =      0 
    LFGISL      =      0 
    LKGISL      =      0 
    LRGISL      =      0 
    WDVTP2      =      0 
    WDVTP3      =      0 
    WDVTP4      =      0 
    WDVTP5      =      0 
    WTNFACTOR   =      0 
    WTETA0      =      0 
    WTVOFFCV    =      0 
    WFGIDL      =      0 
    WKGIDL      =      0 
    WRGIDL      =      0 
    WFGISL      =      0 
    WKGISL      =      0 
    WRGISL      =      0 
    PDVTP2      =      0 
    PDVTP3      =      0 
    PDVTP4      =      0 
    PDVTP5      =      0 
    PTNFACTOR   =      0 
    PTETA0      =      0 
    PTVOFFCV    =      0 
    PFGIDL      =      0 
    PKGIDL      =      0 
    PRGIDL      =      0 
    PFGISL      =      0 
    PKGISL      =      0 
    PRGISL      =      0 
  **warning** (lab03_measure.sp:17) Both nodes of element vgnd are connected together; Line ignored.
  **info** (lab03_measure.sp:93) DC voltage reset to initial transient source value in source            0:vinput. new dc=  0.0000D+00
  
      
 *****************************************************************
 ******  option summary
 ******
 runlvl  = 3         bypass  = 2         
 ******
 inverter

 ****** dc transfer curves tnom=  25.000 temp=  25.000 ******
  *** parameter w_p =   100.0000n       ***
  
 x

 volt         voltage   
             vo         
    0.          1.0500  
   10.00000m    1.0500  
   20.00000m    1.0500  
   30.00000m    1.0500  
   40.00000m    1.0500  
   50.00000m    1.0500  
   60.00000m    1.0500  
   70.00000m    1.0500  
   80.00000m    1.0500  
   90.00000m    1.0500  
  100.00000m    1.0500  
  110.00000m    1.0500  
  120.00000m    1.0500  
  130.00000m    1.0500  
  140.00000m    1.0500  
  150.00000m    1.0499  
  160.00000m    1.0499  
  170.00000m    1.0499  
  180.00000m    1.0498  
  190.00000m    1.0498  
  200.00000m    1.0497  
  210.00000m    1.0495  
  220.00000m    1.0494  
  230.00000m    1.0491  
  240.00000m    1.0487  
  250.00000m    1.0481  
  260.00000m    1.0474  
  270.00000m    1.0463  
  280.00000m    1.0448  
  290.00000m    1.0428  
  300.00000m    1.0399  
  310.00000m    1.0361  
  320.00000m    1.0309  
  330.00000m    1.0239  
  340.00000m    1.0145  
  350.00000m    1.0019  
  360.00000m  985.0470m 
  370.00000m  962.1891m 
  380.00000m  930.3627m 
  390.00000m  883.4610m 
  400.00000m  810.0774m 
  410.00000m  715.0040m 
  420.00000m  615.3705m 
  430.00000m  516.3648m 
  440.00000m  420.5743m 
  450.00000m  330.1643m 
  460.00000m  247.4232m 
  470.00000m  175.1766m 
  480.00000m  117.5486m 
  490.00000m   80.2492m 
  500.00000m   59.2657m 
  510.00000m   46.1209m 
  520.00000m   36.9350m 
  530.00000m   30.0727m 
  540.00000m   24.7247m 
  550.00000m   20.4365m 
  560.00000m   16.9293m 
  570.00000m   14.0214m 
  580.00000m   11.5884m 
  590.00000m    9.5419m 
  600.00000m    7.8169m 
  610.00000m    6.3638m 
  620.00000m    5.1434m 
  630.00000m    4.1238m 
  640.00000m    3.2778m 
  650.00000m    2.5817m 
  660.00000m    2.0143m 
  670.00000m    1.5566m 
  680.00000m    1.1916m 
  690.00000m  903.6112u 
  700.00000m  679.0772u 
  710.00000m  505.9535u 
  720.00000m  373.9206u 
  730.00000m  274.2705u 
  740.00000m  199.7943u 
  750.00000m  144.6351u 
  760.00000m  104.1202u 
  770.00000m   74.5835u 
  780.00000m   53.1938u 
  790.00000m   37.7953u 
  800.00000m   26.7669u 
  810.00000m   18.9038u 
  820.00000m   13.3192u 
  830.00000m    9.3659u 
  840.00000m    6.5751u 
  850.00000m    4.6098u 
  860.00000m    3.2284u 
  870.00000m    2.2590u 
  880.00000m    1.5797u 
  890.00000m    1.1042u 
  900.00000m  771.6196n 
  910.00000m  539.1903n 
  920.00000m  376.8358n 
  930.00000m  263.4767n 
  940.00000m  184.3510n 
  950.00000m  129.1319n 
  960.00000m   90.6007n 
  970.00000m   63.7152n 
  980.00000m   44.9547n 
  990.00000m   31.8623n 
    1.00000    22.7236n 
    1.01000    16.3427n 
    1.02000    11.8855n 
    1.03000     8.7702n 
    1.04000     6.5912n 
    1.05000     5.0654n 
y
 ******
 inverter

 ****** dc transfer curves tnom=  25.000 temp=  25.000 ******
  *** parameter w_p =   200.0000n       ***
  
 x

 volt         voltage   
             vo         
    0.          1.0500  
   10.00000m    1.0500  
   20.00000m    1.0500  
   30.00000m    1.0500  
   40.00000m    1.0500  
   50.00000m    1.0500  
   60.00000m    1.0500  
   70.00000m    1.0500  
   80.00000m    1.0500  
   90.00000m    1.0500  
  100.00000m    1.0500  
  110.00000m    1.0500  
  120.00000m    1.0500  
  130.00000m    1.0500  
  140.00000m    1.0500  
  150.00000m    1.0500  
  160.00000m    1.0500  
  170.00000m    1.0499  
  180.00000m    1.0499  
  190.00000m    1.0499  
  200.00000m    1.0498  
  210.00000m    1.0498  
  220.00000m    1.0497  
  230.00000m    1.0495  
  240.00000m    1.0493  
  250.00000m    1.0491  
  260.00000m    1.0487  
  270.00000m    1.0482  
  280.00000m    1.0474  
  290.00000m    1.0464  
  300.00000m    1.0450  
  310.00000m    1.0432  
  320.00000m    1.0406  
  330.00000m    1.0372  
  340.00000m    1.0328  
  350.00000m    1.0269  
  360.00000m    1.0192  
  370.00000m    1.0093  
  380.00000m  996.3553m 
  390.00000m  979.5163m 
  400.00000m  957.1780m 
  410.00000m  926.4271m 
  420.00000m  880.8824m 
  430.00000m  810.0962m 
  440.00000m  721.8471m 
  450.00000m  629.3634m 
  460.00000m  536.4438m 
  470.00000m  445.3098m 
  480.00000m  358.0178m 
  490.00000m  276.8379m 
  500.00000m  204.5130m 
  510.00000m  144.5579m 
  520.00000m  101.7776m 
  530.00000m   75.6129m 
  540.00000m   58.8178m 
  550.00000m   46.9366m 
  560.00000m   37.9755m 
  570.00000m   30.9425m 
  580.00000m   25.2809m 
  590.00000m   20.6493m 
  600.00000m   16.8232m 
  610.00000m   13.6470m 
  620.00000m   11.0072m 
  630.00000m    8.8174m 
  640.00000m    7.0087m 
  650.00000m    5.5244m 
  660.00000m    4.3159m 
  670.00000m    3.3410m 
  680.00000m    2.5625m 
  690.00000m    1.9474m 
  700.00000m    1.4668m 
  710.00000m    1.0953m 
  720.00000m  811.2014u 
  730.00000m  596.2462u 
  740.00000m  435.1807u 
  750.00000m  315.5984u 
  760.00000m  227.5622u 
  770.00000m  163.2453u 
  780.00000m  116.5793u 
  790.00000m   82.9264u 
  800.00000m   58.7875u 
  810.00000m   41.5537u 
  820.00000m   29.2993u 
  830.00000m   20.6156u 
  840.00000m   14.4802u 
  850.00000m   10.1561u 
  860.00000m    7.1148u 
  870.00000m    4.9796u 
  880.00000m    3.4825u 
  890.00000m    2.4341u 
  900.00000m    1.7007u 
  910.00000m    1.1880u 
  920.00000m  829.7321n 
  930.00000m  579.5637n 
  940.00000m  404.9218n 
  950.00000m  283.0353n 
  960.00000m  197.9820n 
  970.00000m  138.6366n 
  980.00000m   97.2298n 
  990.00000m   68.3383n 
    1.00000    48.1773n 
    1.01000    34.1064n 
    1.02000    24.2838n 
    1.03000    17.4247n 
    1.04000    12.6331n 
    1.05000     9.2840n 
y
 ******
 inverter

 ****** dc transfer curves tnom=  25.000 temp=  25.000 ******
  *** parameter w_p =   300.0000n       ***
  
 x

 volt         voltage   
             vo         
    0.          1.0500  
   10.00000m    1.0500  
   20.00000m    1.0500  
   30.00000m    1.0500  
   40.00000m    1.0500  
   50.00000m    1.0500  
   60.00000m    1.0500  
   70.00000m    1.0500  
   80.00000m    1.0500  
   90.00000m    1.0500  
  100.00000m    1.0500  
  110.00000m    1.0500  
  120.00000m    1.0500  
  130.00000m    1.0500  
  140.00000m    1.0500  
  150.00000m    1.0500  
  160.00000m    1.0500  
  170.00000m    1.0500  
  180.00000m    1.0499  
  190.00000m    1.0499  
  200.00000m    1.0499  
  210.00000m    1.0499  
  220.00000m    1.0498  
  230.00000m    1.0497  
  240.00000m    1.0496  
  250.00000m    1.0494  
  260.00000m    1.0491  
  270.00000m    1.0488  
  280.00000m    1.0483  
  290.00000m    1.0476  
  300.00000m    1.0467  
  310.00000m    1.0455  
  320.00000m    1.0438  
  330.00000m    1.0416  
  340.00000m    1.0387  
  350.00000m    1.0349  
  360.00000m    1.0299  
  370.00000m    1.0236  
  380.00000m    1.0156  
  390.00000m    1.0053  
  400.00000m  992.2852m 
  410.00000m  975.5360m 
  420.00000m  953.5108m 
  430.00000m  923.1585m 
  440.00000m  877.5652m 
  450.00000m  807.4422m 
  460.00000m  722.7874m 
  470.00000m  634.1363m 
  480.00000m  544.5334m 
  490.00000m  455.9931m 
  500.00000m  370.4903m 
  510.00000m  290.2716m 
  520.00000m  218.0726m 
  530.00000m  157.3228m 
  540.00000m  112.5276m 
  550.00000m   83.9522m 
  560.00000m   65.1944m 
  570.00000m   51.7782m 
  580.00000m   41.6018m 
  590.00000m   33.5997m 
  600.00000m   27.1668m 
  610.00000m   21.9273m 
  620.00000m   17.6306m 
  630.00000m   14.0990m 
  640.00000m   11.2000m 
  650.00000m    8.8299m 
  660.00000m    6.9041m 
  670.00000m    5.3516m 
  680.00000m    4.1114m 
  690.00000m    3.1303m 
  700.00000m    2.3623m 
  710.00000m    1.7675m 
  720.00000m    1.3117m 
  730.00000m  965.9744u 
  740.00000m  706.3089u 
  750.00000m  513.0844u 
  760.00000m  370.5279u 
  770.00000m  266.1730u 
  780.00000m  190.3195u 
  790.00000m  135.5285u 
  800.00000m   96.1703u 
  810.00000m   68.0346u 
  820.00000m   48.0055u 
  830.00000m   33.7986u 
  840.00000m   23.7524u 
  850.00000m   16.6667u 
  860.00000m   11.6801u 
  870.00000m    8.1771u 
  880.00000m    5.7200u 
  890.00000m    3.9987u 
  900.00000m    2.7941u 
  910.00000m    1.9517u 
  920.00000m    1.3630u 
  930.00000m  951.8236n 
  940.00000m  664.7376n 
  950.00000m  464.3494n 
  960.00000m  324.5043n 
  970.00000m  226.9225n 
  980.00000m  158.8353n 
  990.00000m  111.3279n 
    1.00000    78.1783n 
    1.01000    55.0447n 
    1.02000    38.8985n 
    1.03000    27.6267n 
    1.04000    19.7556n 
    1.05000    14.2572n 
y
 ******
 inverter

 ****** dc transfer curves tnom=  25.000 temp=  25.000 ******
  *** parameter w_p =   400.0000n       ***
  
 x

 volt         voltage   
             vo         
    0.          1.0500  
   10.00000m    1.0500  
   20.00000m    1.0500  
   30.00000m    1.0500  
   40.00000m    1.0500  
   50.00000m    1.0500  
   60.00000m    1.0500  
   70.00000m    1.0500  
   80.00000m    1.0500  
   90.00000m    1.0500  
  100.00000m    1.0500  
  110.00000m    1.0500  
  120.00000m    1.0500  
  130.00000m    1.0500  
  140.00000m    1.0500  
  150.00000m    1.0500  
  160.00000m    1.0500  
  170.00000m    1.0500  
  180.00000m    1.0500  
  190.00000m    1.0499  
  200.00000m    1.0499  
  210.00000m    1.0499  
  220.00000m    1.0498  
  230.00000m    1.0498  
  240.00000m    1.0497  
  250.00000m    1.0495  
  260.00000m    1.0494  
  270.00000m    1.0491  
  280.00000m    1.0487  
  290.00000m    1.0482  
  300.00000m    1.0476  
  310.00000m    1.0466  
  320.00000m    1.0454  
  330.00000m    1.0438  
  340.00000m    1.0416  
  350.00000m    1.0388  
  360.00000m    1.0352  
  370.00000m    1.0306  
  380.00000m    1.0247  
  390.00000m    1.0174  
  400.00000m    1.0083  
  410.00000m  996.7645m 
  420.00000m  982.2546m 
  430.00000m  963.5599m 
  440.00000m  938.5164m 
  450.00000m  902.3752m 
  460.00000m  845.3883m 
  470.00000m  767.8415m 
  480.00000m  683.1696m 
  490.00000m  595.9995m 
  500.00000m  508.4054m 
  510.00000m  422.2522m 
  520.00000m  339.5894m 
  530.00000m  262.8968m 
  540.00000m  195.2538m 
  550.00000m  140.6516m 
  560.00000m  102.8351m 
  570.00000m   78.3612m 
  580.00000m   61.3951m 
  590.00000m   48.8049m 
  600.00000m   39.0554m 
  610.00000m   31.3107m 
  620.00000m   25.0666m 
  630.00000m   19.9939m 
  640.00000m   15.8623m 
  650.00000m   12.5015m 
  660.00000m    9.7789m 
  670.00000m    7.5870m 
  680.00000m    5.8364m 
  690.00000m    4.4507m 
  700.00000m    3.3646m 
  710.00000m    2.5220m 
  720.00000m    1.8750m 
  730.00000m    1.3832m 
  740.00000m    1.0131m 
  750.00000m  737.1137u 
  760.00000m  533.0854u 
  770.00000m  383.4529u 
  780.00000m  274.5015u 
  790.00000m  195.6808u 
  800.00000m  138.9826u 
  810.00000m   98.4011u 
  820.00000m   69.4809u 
  830.00000m   48.9481u 
  840.00000m   34.4166u 
  850.00000m   24.1603u 
  860.00000m   16.9379u 
  870.00000m   11.8617u 
  880.00000m    8.2995u 
  890.00000m    5.8031u 
  900.00000m    4.0554u 
  910.00000m    2.8330u 
  920.00000m    1.9785u 
  930.00000m    1.3816u 
  940.00000m  964.7279n 
  950.00000m  673.7286n 
  960.00000m  470.6278n 
  970.00000m  328.8959n 
  980.00000m  229.9978n 
  990.00000m  160.9902n 
    1.00000   112.8379n 
    1.01000    79.2356n 
    1.02000    55.7842n 
    1.03000    39.4144n 
    1.04000    27.9854n 
    1.05000    20.0036n 
y
 ******
 inverter

 ****** dc transfer curves tnom=  25.000 temp=  25.000 ******
  *** parameter w_p =   500.0000n       ***
  
 x

 volt         voltage   
             vo         
    0.          1.0500  
   10.00000m    1.0500  
   20.00000m    1.0500  
   30.00000m    1.0500  
   40.00000m    1.0500  
   50.00000m    1.0500  
   60.00000m    1.0500  
   70.00000m    1.0500  
   80.00000m    1.0500  
   90.00000m    1.0500  
  100.00000m    1.0500  
  110.00000m    1.0500  
  120.00000m    1.0500  
  130.00000m    1.0500  
  140.00000m    1.0500  
  150.00000m    1.0500  
  160.00000m    1.0500  
  170.00000m    1.0500  
  180.00000m    1.0500  
  190.00000m    1.0500  
  200.00000m    1.0499  
  210.00000m    1.0499  
  220.00000m    1.0499  
  230.00000m    1.0498  
  240.00000m    1.0497  
  250.00000m    1.0496  
  260.00000m    1.0495  
  270.00000m    1.0493  
  280.00000m    1.0490  
  290.00000m    1.0486  
  300.00000m    1.0481  
  310.00000m    1.0473  
  320.00000m    1.0464  
  330.00000m    1.0451  
  340.00000m    1.0433  
  350.00000m    1.0411  
  360.00000m    1.0383  
  370.00000m    1.0347  
  380.00000m    1.0301  
  390.00000m    1.0244  
  400.00000m    1.0174  
  410.00000m    1.0087  
  420.00000m  997.8921m 
  430.00000m  984.4004m 
  440.00000m  967.1932m 
  450.00000m  944.3936m 
  460.00000m  911.9356m 
  470.00000m  860.8197m 
  480.00000m  787.7553m 
  490.00000m  705.7878m 
  500.00000m  620.4856m 
  510.00000m  533.9503m 
  520.00000m  447.9841m 
  530.00000m  364.5557m 
  540.00000m  286.0568m 
  550.00000m  215.4928m 
  560.00000m  156.6942m 
  570.00000m  114.0318m 
  580.00000m   86.0840m 
  590.00000m   66.8947m 
  600.00000m   52.7850m 
  610.00000m   41.9410m 
  620.00000m   33.3859m 
  630.00000m   26.5359m 
  640.00000m   21.0107m 
  650.00000m   16.5448m 
  660.00000m   12.9411m 
  670.00000m   10.0462m 
  680.00000m    7.7358m 
  690.00000m    5.9069m 
  700.00000m    4.4722m 
  710.00000m    3.3576m 
  720.00000m    2.5004m 
  730.00000m    1.8476m 
  740.00000m    1.3553m 
  750.00000m  987.5772u 
  760.00000m  715.1932u 
  770.00000m  515.0878u 
  780.00000m  369.1502u 
  790.00000m  263.4163u 
  800.00000m  187.2578u 
  810.00000m  132.6836u 
  820.00000m   93.7511u 
  830.00000m   66.0847u 
  840.00000m   46.4891u 
  850.00000m   32.6491u 
  860.00000m   22.8974u 
  870.00000m   16.0400u 
  880.00000m   11.2259u 
  890.00000m    7.8508u 
  900.00000m    5.4873u 
  910.00000m    3.8337u 
  920.00000m    2.6776u 
  930.00000m    1.8698u 
  940.00000m    1.3056u 
  950.00000m  911.6480n 
  960.00000m  636.6874n 
  970.00000m  444.7926n 
  980.00000m  310.8830n 
  990.00000m  217.4413n 
    1.00000   152.2376n 
    1.01000   106.7362n 
    1.02000    74.9809n 
    1.03000    52.8159n 
    1.04000    37.3421n 
    1.05000    26.5371n 
y
 ******
 inverter

 ****** dc transfer curves tnom=  25.000 temp=  25.000 ******
  *** parameter w_p =   600.0000n       ***
  
 x

 volt         voltage   
             vo         
    0.          1.0500  
   10.00000m    1.0500  
   20.00000m    1.0500  
   30.00000m    1.0500  
   40.00000m    1.0500  
   50.00000m    1.0500  
   60.00000m    1.0500  
   70.00000m    1.0500  
   80.00000m    1.0500  
   90.00000m    1.0500  
  100.00000m    1.0500  
  110.00000m    1.0500  
  120.00000m    1.0500  
  130.00000m    1.0500  
  140.00000m    1.0500  
  150.00000m    1.0500  
  160.00000m    1.0500  
  170.00000m    1.0500  
  180.00000m    1.0500  
  190.00000m    1.0500  
  200.00000m    1.0499  
  210.00000m    1.0499  
  220.00000m    1.0499  
  230.00000m    1.0499  
  240.00000m    1.0498  
  250.00000m    1.0497  
  260.00000m    1.0496  
  270.00000m    1.0494  
  280.00000m    1.0492  
  290.00000m    1.0488  
  300.00000m    1.0484  
  310.00000m    1.0478  
  320.00000m    1.0470  
  330.00000m    1.0459  
  340.00000m    1.0445  
  350.00000m    1.0427  
  360.00000m    1.0403  
  370.00000m    1.0374  
  380.00000m    1.0336  
  390.00000m    1.0290  
  400.00000m    1.0233  
  410.00000m    1.0163  
  420.00000m    1.0078  
  430.00000m  997.2238m 
  440.00000m  984.1354m 
  450.00000m  967.5020m 
  460.00000m  945.4757m 
  470.00000m  914.0081m 
  480.00000m  864.0997m 
  490.00000m  792.5301m 
  500.00000m  711.9678m 
  510.00000m  627.7589m 
  520.00000m  541.9264m 
  530.00000m  456.2308m 
  540.00000m  372.6283m 
  550.00000m  293.5304m 
  560.00000m  222.0082m 
  570.00000m  161.9880m 
  580.00000m  117.9713m 
  590.00000m   88.8575m 
  600.00000m   68.7845m 
  610.00000m   54.0152m 
  620.00000m   42.6817m 
  630.00000m   33.7690m 
  640.00000m   26.6649m 
  650.00000m   20.9674m 
  660.00000m   16.3926m 
  670.00000m   12.7283m 
  680.00000m    9.8082m 
  690.00000m    7.4973m 
  700.00000m    5.6836m 
  710.00000m    4.2732m 
  720.00000m    3.1870m 
  730.00000m    2.3585m 
  740.00000m    1.7326m 
  750.00000m    1.2642m 
  760.00000m  916.7299u 
  770.00000m  661.0115u 
  780.00000m  474.2380u 
  790.00000m  338.7292u 
  800.00000m  241.0011u 
  810.00000m  170.8915u 
  820.00000m  120.8267u 
  830.00000m   85.2181u 
  840.00000m   59.9783u 
  850.00000m   42.1400u 
  860.00000m   29.5640u 
  870.00000m   20.7163u 
  880.00000m   14.5023u 
  890.00000m   10.1443u 
  900.00000m    7.0915u 
  910.00000m    4.9551u 
  920.00000m    3.4611u 
  930.00000m    2.4170u 
  940.00000m    1.6877u 
  950.00000m    1.1784u 
  960.00000m  822.9066n 
  970.00000m  574.7705n 
  980.00000m  401.6022n 
  990.00000m  280.7596n 
    1.00000   196.4326n 
    1.01000   137.5852n 
    1.02000    96.5156n 
    1.03000    67.8500n 
    1.04000    47.8390n 
    1.05000    33.8668n 
y
 ******
 inverter

 ****** dc transfer curves tnom=  25.000 temp=  25.000 ******
  *** parameter w_p =   700.0000n       ***
  
 x

 volt         voltage   
             vo         
    0.          1.0500  
   10.00000m    1.0500  
   20.00000m    1.0500  
   30.00000m    1.0500  
   40.00000m    1.0500  
   50.00000m    1.0500  
   60.00000m    1.0500  
   70.00000m    1.0500  
   80.00000m    1.0500  
   90.00000m    1.0500  
  100.00000m    1.0500  
  110.00000m    1.0500  
  120.00000m    1.0500  
  130.00000m    1.0500  
  140.00000m    1.0500  
  150.00000m    1.0500  
  160.00000m    1.0500  
  170.00000m    1.0500  
  180.00000m    1.0500  
  190.00000m    1.0500  
  200.00000m    1.0500  
  210.00000m    1.0499  
  220.00000m    1.0499  
  230.00000m    1.0499  
  240.00000m    1.0498  
  250.00000m    1.0497  
  260.00000m    1.0496  
  270.00000m    1.0495  
  280.00000m    1.0493  
  290.00000m    1.0490  
  300.00000m    1.0486  
  310.00000m    1.0481  
  320.00000m    1.0474  
  330.00000m    1.0465  
  340.00000m    1.0453  
  350.00000m    1.0438  
  360.00000m    1.0418  
  370.00000m    1.0393  
  380.00000m    1.0361  
  390.00000m    1.0322  
  400.00000m    1.0275  
  410.00000m    1.0216  
  420.00000m    1.0145  
  430.00000m    1.0059  
  440.00000m  995.3910m 
  450.00000m  982.3113m 
  460.00000m  965.6591m 
  470.00000m  943.4304m 
  480.00000m  911.1131m 
  490.00000m  859.1626m 
  500.00000m  786.9358m 
  510.00000m  706.7472m 
  520.00000m  622.9453m 
  530.00000m  537.4098m 
  540.00000m  451.8853m 
  550.00000m  368.3743m 
  560.00000m  289.4003m 
  570.00000m  218.2140m 
  580.00000m  159.0058m 
  590.00000m  116.1658m 
  600.00000m   87.6845m 
  610.00000m   67.8049m 
  620.00000m   53.0767m 
  630.00000m   41.7497m 
  640.00000m   32.8505m 
  650.00000m   25.7800m 
  660.00000m   20.1369m 
  670.00000m   15.6336m 
  680.00000m   12.0520m 
  690.00000m    9.2200m 
  700.00000m    6.9972m 
  710.00000m    5.2675m 
  720.00000m    3.9338m 
  730.00000m    2.9151m 
  740.00000m    2.1444m 
  750.00000m    1.5667m 
  760.00000m    1.1375m 
  770.00000m  821.1089u 
  780.00000m  589.6938u 
  790.00000m  421.5805u 
  800.00000m  300.1929u 
  810.00000m  213.0165u 
  820.00000m  150.7051u 
  830.00000m  106.3490u 
  840.00000m   74.8858u 
  850.00000m   52.6351u 
  860.00000m   36.9398u 
  870.00000m   25.8922u 
  880.00000m   18.1301u 
  890.00000m   12.6845u 
  900.00000m    8.8688u 
  910.00000m    6.1977u 
  920.00000m    4.3295u 
  930.00000m    3.0237u 
  940.00000m    2.1114u 
  950.00000m    1.4742u 
  960.00000m    1.0294u 
  970.00000m  718.9191n 
  980.00000m  502.2189n 
  990.00000m  350.9901n 
    1.00000   245.4546n 
    1.01000   171.8049n 
    1.02000   120.4042n 
    1.03000    84.5279n 
    1.04000    59.4838n 
    1.05000    41.9984n 
y
 ******
 inverter

 ****** dc transfer curves tnom=  25.000 temp=  25.000 ******
  *** parameter w_p =   800.0000n       ***
  
 x

 volt         voltage   
             vo         
    0.          1.0500  
   10.00000m    1.0500  
   20.00000m    1.0500  
   30.00000m    1.0500  
   40.00000m    1.0500  
   50.00000m    1.0500  
   60.00000m    1.0500  
   70.00000m    1.0500  
   80.00000m    1.0500  
   90.00000m    1.0500  
  100.00000m    1.0500  
  110.00000m    1.0500  
  120.00000m    1.0500  
  130.00000m    1.0500  
  140.00000m    1.0500  
  150.00000m    1.0500  
  160.00000m    1.0500  
  170.00000m    1.0500  
  180.00000m    1.0500  
  190.00000m    1.0500  
  200.00000m    1.0500  
  210.00000m    1.0499  
  220.00000m    1.0499  
  230.00000m    1.0499  
  240.00000m    1.0498  
  250.00000m    1.0498  
  260.00000m    1.0497  
  270.00000m    1.0496  
  280.00000m    1.0494  
  290.00000m    1.0491  
  300.00000m    1.0488  
  310.00000m    1.0484  
  320.00000m    1.0478  
  330.00000m    1.0470  
  340.00000m    1.0459  
  350.00000m    1.0446  
  360.00000m    1.0429  
  370.00000m    1.0407  
  380.00000m    1.0380  
  390.00000m    1.0346  
  400.00000m    1.0305  
  410.00000m    1.0255  
  420.00000m    1.0195  
  430.00000m    1.0122  
  440.00000m    1.0034  
  450.00000m  992.6629m 
  460.00000m  979.2902m 
  470.00000m  962.1281m 
  480.00000m  938.8267m 
  490.00000m  903.8813m 
  500.00000m  847.3800m 
  510.00000m  773.4239m 
  520.00000m  692.8919m 
  530.00000m  608.9665m 
  540.00000m  523.4005m 
  550.00000m  437.9620m 
  560.00000m  354.7654m 
  570.00000m  276.5377m 
  580.00000m  206.8201m 
  590.00000m  150.2021m 
  600.00000m  110.3778m 
  610.00000m   83.6871m 
  620.00000m   64.7329m 
  630.00000m   50.5503m 
  640.00000m   39.5997m 
  650.00000m   30.9960m 
  660.00000m   24.1786m 
  670.00000m   18.7626m 
  680.00000m   14.4664m 
  690.00000m   11.0736m 
  700.00000m    8.4115m 
  710.00000m    6.3390m 
  720.00000m    4.7397m 
  730.00000m    3.5167m 
  740.00000m    2.5903m 
  750.00000m    1.8947m 
  760.00000m    1.3772m 
  770.00000m  995.1974u 
  780.00000m  715.4103u 
  790.00000m  511.9042u 
  800.00000m  364.7935u 
  810.00000m  259.0352u 
  820.00000m  183.3730u 
  830.00000m  129.4699u 
  840.00000m   91.2077u 
  850.00000m   64.1324u 
  860.00000m   45.0236u 
  870.00000m   31.5674u 
  880.00000m   22.1093u 
  890.00000m   15.4716u 
  900.00000m   10.8192u 
  910.00000m    7.5618u 
  920.00000m    5.2830u 
  930.00000m    3.6898u 
  940.00000m    2.5766u 
  950.00000m    1.7991u 
  960.00000m    1.2562u 
  970.00000m  877.2682n 
  980.00000m  612.7550n 
  990.00000m  428.1487n 
    1.00000   299.3150n 
    1.01000   209.4035n 
    1.02000   146.6525n 
    1.03000   102.8537n 
    1.04000    72.2796n 
    1.05000    50.9338n 
y
 ******
 inverter

 ****** dc transfer curves tnom=  25.000 temp=  25.000 ******
  *** parameter w_p =   900.0000n       ***
  
 x

 volt         voltage   
             vo         
    0.          1.0500  
   10.00000m    1.0500  
   20.00000m    1.0500  
   30.00000m    1.0500  
   40.00000m    1.0500  
   50.00000m    1.0500  
   60.00000m    1.0500  
   70.00000m    1.0500  
   80.00000m    1.0500  
   90.00000m    1.0500  
  100.00000m    1.0500  
  110.00000m    1.0500  
  120.00000m    1.0500  
  130.00000m    1.0500  
  140.00000m    1.0500  
  150.00000m    1.0500  
  160.00000m    1.0500  
  170.00000m    1.0500  
  180.00000m    1.0500  
  190.00000m    1.0500  
  200.00000m    1.0500  
  210.00000m    1.0500  
  220.00000m    1.0499  
  230.00000m    1.0499  
  240.00000m    1.0499  
  250.00000m    1.0498  
  260.00000m    1.0497  
  270.00000m    1.0496  
  280.00000m    1.0495  
  290.00000m    1.0492  
  300.00000m    1.0489  
  310.00000m    1.0486  
  320.00000m    1.0480  
  330.00000m    1.0473  
  340.00000m    1.0464  
  350.00000m    1.0452  
  360.00000m    1.0437  
  370.00000m    1.0418  
  380.00000m    1.0394  
  390.00000m    1.0365  
  400.00000m    1.0329  
  410.00000m    1.0285  
  420.00000m    1.0233  
  430.00000m    1.0170  
  440.00000m    1.0094  
  450.00000m    1.0003  
  460.00000m  989.1618m 
  470.00000m  975.1964m 
  480.00000m  957.0156m 
  490.00000m  931.6387m 
  500.00000m  891.9086m 
  510.00000m  829.3420m 
  520.00000m  753.3808m 
  530.00000m  672.0315m 
  540.00000m  587.6116m 
  550.00000m  501.8094m 
  560.00000m  416.4721m 
  570.00000m  333.9040m 
  580.00000m  257.1357m 
  590.00000m  190.1168m 
  600.00000m  137.8483m 
  610.00000m  102.1765m 
  620.00000m   77.8651m 
  630.00000m   60.2629m 
  640.00000m   46.9528m 
  650.00000m   36.6328m 
  660.00000m   28.5242m 
  670.00000m   22.1168m 
  680.00000m   17.0506m 
  690.00000m   13.0565m 
  700.00000m    9.9247m 
  710.00000m    7.4865m 
  720.00000m    5.6036m 
  730.00000m    4.1625m 
  740.00000m    3.0694m 
  750.00000m    2.2478m 
  760.00000m    1.6355m 
  770.00000m    1.1831m 
  780.00000m  851.2607u 
  790.00000m  609.6118u 
  800.00000m  434.7460u 
  810.00000m  308.9115u 
  820.00000m  218.8076u 
  830.00000m  154.5665u 
  840.00000m  108.9353u 
  850.00000m   76.6263u 
  860.00000m   53.8123u 
  870.00000m   37.7398u 
  880.00000m   26.4385u 
  890.00000m   18.5047u 
  900.00000m   12.9424u 
  910.00000m    9.0469u 
  920.00000m    6.3212u 
  930.00000m    4.4153u 
  940.00000m    3.0834u 
  950.00000m    2.1530u 
  960.00000m    1.5034u 
  970.00000m    1.0498u 
  980.00000m  733.1961n 
  990.00000m  512.2257n 
    1.00000   358.0073n 
    1.01000   250.3767n 
    1.02000   175.2576n 
    1.03000   122.8255n 
    1.04000    86.2250n 
    1.05000    60.6722n 
y
 ******
 inverter

 ****** dc transfer curves tnom=  25.000 temp=  25.000 ******
  *** parameter w_p =     1.0000u       ***
  
 x

 volt         voltage   
             vo         
    0.          1.0500  
   10.00000m    1.0500  
   20.00000m    1.0500  
   30.00000m    1.0500  
   40.00000m    1.0500  
   50.00000m    1.0500  
   60.00000m    1.0500  
   70.00000m    1.0500  
   80.00000m    1.0500  
   90.00000m    1.0500  
  100.00000m    1.0500  
  110.00000m    1.0500  
  120.00000m    1.0500  
  130.00000m    1.0500  
  140.00000m    1.0500  
  150.00000m    1.0500  
  160.00000m    1.0500  
  170.00000m    1.0500  
  180.00000m    1.0500  
  190.00000m    1.0500  
  200.00000m    1.0500  
  210.00000m    1.0500  
  220.00000m    1.0499  
  230.00000m    1.0499  
  240.00000m    1.0499  
  250.00000m    1.0498  
  260.00000m    1.0498  
  270.00000m    1.0496  
  280.00000m    1.0495  
  290.00000m    1.0493  
  300.00000m    1.0491  
  310.00000m    1.0487  
  320.00000m    1.0482  
  330.00000m    1.0476  
  340.00000m    1.0468  
  350.00000m    1.0457  
  360.00000m    1.0444  
  370.00000m    1.0427  
  380.00000m    1.0405  
  390.00000m    1.0379  
  400.00000m    1.0347  
  410.00000m    1.0309  
  420.00000m    1.0262  
  430.00000m    1.0207  
  440.00000m    1.0141  
  450.00000m    1.0062  
  460.00000m  996.6580m 
  470.00000m  984.8950m 
  480.00000m  969.9993m 
  490.00000m  950.1668m 
  500.00000m  921.3181m 
  510.00000m  874.1833m 
  520.00000m  805.6109m 
  530.00000m  727.6657m 
  540.00000m  645.1967m 
  550.00000m  560.0614m 
  560.00000m  473.9606m 
  570.00000m  388.8920m 
  580.00000m  307.4454m 
  590.00000m  233.0635m 
  600.00000m  170.2445m 
  610.00000m  123.9007m 
  620.00000m   92.7556m 
  630.00000m   71.0049m 
  640.00000m   54.9599m 
  650.00000m   42.7114m 
  660.00000m   33.1819m 
  670.00000m   25.6986m 
  680.00000m   19.8043m 
  690.00000m   15.1676m 
  700.00000m   11.5356m 
  710.00000m    8.7084m 
  720.00000m    6.5244m 
  730.00000m    4.8514m 
  740.00000m    3.5812m 
  750.00000m    2.6253m 
  760.00000m    1.9122m 
  770.00000m    1.3845m 
  780.00000m  997.0700u 
  790.00000m  714.5966u 
  800.00000m  509.9798u 
  810.00000m  362.5990u 
  820.00000m  256.9787u 
  830.00000m  181.6191u 
  840.00000m  128.0555u 
  850.00000m   90.1086u 
  860.00000m   63.3003u 
  870.00000m   44.4058u 
  880.00000m   31.1153u 
  890.00000m   21.7823u 
  900.00000m   15.2372u 
  910.00000m   10.6525u 
  920.00000m    7.4438u 
  930.00000m    5.1999u 
  940.00000m    3.6315u 
  950.00000m    2.5359u 
  960.00000m    1.7707u 
  970.00000m    1.2364u 
  980.00000m  863.4964n 
  990.00000m  603.1898n 
    1.00000   421.5102n 
    1.01000   294.7098n 
    1.02000   206.2092n 
    1.03000   144.4362n 
    1.04000   101.3151n 
    1.05000    71.2101n 
y

          ***** job concluded
1****** HSPICE -- K-2015.06-3 linux64 (Aug  5 2015) ******                      
 ******  
 inverter

 ****** job statistics summary tnom=  25.000 temp=  25.000 ******
  
  
 ******  Machine Information  ******
 CPU:
 model name	: Intel(R) Xeon(R) Silver 4214Y CPU @ 2.20GHz
 cpu MHz	: 2194.844
  
 OS:
 Linux version 4.18.0-553.16.1.el8_10.x86_64 (mockbuild@x86-64-01.build.eng.rdu2.redhat.com) (gcc version 8.5.0 20210514 (Red Hat 8.5.0-22) (GCC)) #1 SMP Thu Aug 1 04:16:12 EDT 2024


  ******  HSPICE Threads Information  ******

  Command Line Threads Count :     1
  Available CPU Count        :     6
  Actual Threads Count       :     1


  ****** Statistics of Ignored Elements ******
  Voltage Sources :       1

  ******  Circuit Statistics  ******
  # nodes       =       4 # elements   =       4
  # resistors   =       0 # capacitors =       0 # inductors   =       0
  # mutual_inds =       0 # vccs       =       0 # vcvs        =       0
  # cccs        =       0 # ccvs       =       0 # volt_srcs   =       2
  # curr_srcs   =       0 # diodes     =       0 # bjts        =       0
  # jfets       =       0 # mosfets    =       2 # U elements  =       0
  # T elements  =       0 # W elements =       0 # B elements  =       0
  # S elements  =       0 # P elements =       0 # va device   =       0
  # vector_srcs =       0 # N elements =       0


  ******  Runtime Statistics (seconds)  ******

  analysis           time    # points   tot. iter  conv.iter
  op point           0.00           1           0
  dc sweep           0.01        1060        2477
  readin             1.15
  errchk             0.01
  setup              0.00
  output             0.00


           peak memory used        275.39 megabytes
           total cpu time            1.17 seconds
           total elapsed time        0.72 seconds
           job started at     14:34:24 11/13/2024
           job ended   at     14:34:25 11/13/2024


 lic: Release hspice token(s) 
 lic: total license checkout elapse time:        0.01(s)
