$DATA1 SOURCE='HSPICE' VERSION='K-2015.06-3 linux64' PARAM_COUNT=0
.TITLE 'inverter'
 outrise          outfall          tphl             tplh            
 temper           alter#          
  4.094e-07        4.139e-07       -4.703e-08        4.510e-08      
   25.0000        1               
