$DATA1 SOURCE='HSPICE' VERSION='K-2015.06-3 linux64' PARAM_COUNT=0
.TITLE 'inverter'
 outrise          outfall          temper           alter#          
  8.916e-08        6.390e-08         25.0000        1               
