$DATA1 SOURCE='HSPICE' VERSION='K-2015.06-3 linux64' PARAM_COUNT=0
.TITLE 'inverter'
 outrise          outfall          tphl             tplh            
 temper           alter#          
  1.689e-11        9.538e-12        9.545e-12        1.473e-11      
   25.0000        1               
